@<TRIPOS>MOLECULE
Structure1
145   144    1
SMALL
USER_CHARGES


@<TRIPOS>ATOM
      1 C1        -10.1689   -0.9274    1.3889 C.3       1 UNK         0.0000 
      2 C2         -9.0584   -0.2771    0.5248 C.3       1 UNK         0.0000 
      3 C3         -7.6546   -0.8525    0.8277 C.3       1 UNK         0.0000 
      4 H4         -9.0518    0.8018    0.6879 H         1 UNK         0.0000 
      5 O5         -9.3228   -0.5230   -0.8428 O.3       1 UNK         0.0000 
      6 C6         -6.4732   -0.0961    0.1700 C.3       1 UNK         0.0000 
      7 H7         -7.6239   -1.9052    0.5400 H         1 UNK         0.0000 
      8 H8         -7.5017   -0.8395    1.9076 H         1 UNK         0.0000 
      9 C9         -5.1077   -0.7627    0.4575 C.3       1 UNK         0.0000 
     10 H10        -6.4557    0.9353    0.5254 H         1 UNK         0.0000 
     11 O11        -6.6476   -0.0854   -1.2335 O.3       1 UNK         0.0000 
     12 C12        -3.8682    0.0611    0.0289 C.3       1 UNK         0.0000 
     13 H13        -5.0771   -1.7475   -0.0124 H         1 UNK         0.0000 
     14 H14        -5.0332   -0.9472    1.5298 H         1 UNK         0.0000 
     15 C15        -2.5398   -0.6823    0.2999 C.3       1 UNK         0.0000 
     16 H16        -3.8631    1.0163    0.5563 H         1 UNK         0.0000 
     17 O17        -3.9335    0.3145   -1.3610 O.3       1 UNK         0.0000 
     18 C18        -1.2586    0.1673    0.1126 C.3       1 UNK         0.0000 
     19 H19        -2.4864   -1.5746   -0.3267 H         1 UNK         0.0000 
     20 H20        -2.5529   -1.0464    1.3280 H         1 UNK         0.0000 
     21 C21         0.0319   -0.6446    0.3681 C.3       1 UNK         0.0000 
     22 H22        -1.2861    1.0252    0.7864 H         1 UNK         0.0000 
     23 O23        -1.2036    0.6414   -1.2186 O.3       1 UNK         0.0000 
     24 C24         1.3347    0.1899    0.4235 C.3       1 UNK         0.0000 
     25 H25         0.1263   -1.4283   -0.3859 H         1 UNK         0.0000 
     26 H26        -0.0731   -1.1653    1.3207 H         1 UNK         0.0000 
     27 C27         2.5848   -0.6853    0.6666 C.3       1 UNK         0.0000 
     28 H28         1.2574    0.9380    1.2140 H         1 UNK         0.0000 
     29 O29         1.5157    0.8552   -0.8110 O.3       1 UNK         0.0000 
     30 C30         3.8874    0.0974    0.9596 C.3       1 UNK         0.0000 
     31 H31         2.7369   -1.3524   -0.1840 H         1 UNK         0.0000 
     32 H32         2.3870   -1.3367    1.5187 H         1 UNK         0.0000 
     33 C33         5.0944   -0.8373    1.1964 C.3       1 UNK         0.0000 
     34 H34         3.7443    0.7323    1.8354 H         1 UNK         0.0000 
     35 O35         4.1973    0.9197   -0.1480 O.3       1 UNK         0.0000 
     36 C36         6.3741   -0.1361    1.7103 C.3       1 UNK         0.0000 
     37 H37         5.3163   -1.3907    0.2819 H         1 UNK         0.0000 
     38 H38         4.8060   -1.5893    1.9320 H         1 UNK         0.0000 
     39 C39         7.5321   -1.1292    1.9502 C.3       1 UNK         0.0000 
     40 H40         6.1537    0.3930    2.6389 H         1 UNK         0.0000 
     41 O41         6.8100    0.8036    0.7479 O.3       1 UNK         0.0000 
     42 C42         8.7647   -0.5305    2.6669 C.3       1 UNK         0.0000 
     43 H43         7.8348   -1.5796    1.0029 H         1 UNK         0.0000 
     44 H44         7.1562   -1.9518    2.5598 H         1 UNK         0.0000 
     45 C45         9.8645   -1.5831    2.9224 C.3       1 UNK         0.0000 
     46 H46         8.4574   -0.0924    3.6178 H         1 UNK         0.0000 
     47 O47         9.3244    0.4874    1.8607 O.3       1 UNK         0.0000 
     48 C48        11.0246   -1.1005    3.8230 C.3       1 UNK         0.0000 
     49 H49        10.2573   -1.9486    1.9716 H         1 UNK         0.0000 
     50 H50         9.4045   -2.4479    3.4021 H         1 UNK         0.0000 
     51 C51        12.0536   -2.2154    4.1054 C.3       1 UNK         0.0000 
     52 H52        10.6232   -0.7339    4.7692 H         1 UNK         0.0000 
     53 O53        11.7053   -0.0414    3.1786 O.3       1 UNK         0.0000 
     54 H54        12.5431   -2.5139    3.1764 H         1 UNK         0.0000 
     55 H55        11.5143   -3.0992    4.4494 H         1 UNK         0.0000 
     56 C56        13.1113   -1.8613    5.1741 C.3       1 UNK         0.0000 
     57 C57        14.0406   -3.0428    5.4754 C.3       1 UNK         0.0000 
     58 H58        12.6110   -1.5558    6.0949 H         1 UNK         0.0000 
     59 O59        13.9111   -0.7864    4.7162 O.3       1 UNK         0.0000 
     60 H60        14.7771   -2.7897    6.2385 H         1 UNK         0.0000 
     61 H61        13.4769   -3.9014    5.8421 H         1 UNK         0.0000 
     62 H62        14.5811   -3.3619    4.5830 H         1 UNK         0.0000 
     63 H63        14.5891   -0.6095    5.3555 H         1 UNK         0.0000 
     64 H64        12.5862   -0.0199    3.5611 H         1 UNK         0.0000 
     65 H65        10.2356    0.5853    2.1540 H         1 UNK         0.0000 
     66 H66         7.7411    0.9597    0.9357 H         1 UNK         0.0000 
     67 H67         5.1355    1.1216   -0.0704 H         1 UNK         0.0000 
     68 H68         2.4495    1.0868   -0.8480 H         1 UNK         0.0000 
     69 H69        -0.2839    0.8826   -1.3710 H         1 UNK         0.0000 
     70 H70        -3.0366    0.5453   -1.6252 H         1 UNK         0.0000 
     71 H71        -5.7798    0.1148   -1.6004 H         1 UNK         0.0000 
     72 H72        -8.4881   -0.3692   -1.2986 H         1 UNK         0.0000 
     73 C73       -11.6120   -0.4659    1.0729 C.3       1 UNK         0.0000 
     74 H74        -9.9551   -0.7033    2.4347 H         1 UNK         0.0000 
     75 H75       -10.1109   -2.0142    1.3045 H         1 UNK         0.0000 
     76 C76       -12.6442   -0.9757    2.1120 C.3       1 UNK         0.0000 
     77 O77       -11.9376   -0.9774   -0.2050 O.3       1 UNK         0.0000 
     78 H78       -11.6448    0.6239    1.0284 H         1 UNK         0.0000 
     79 C79       -14.1245   -0.6515    1.7951 C.3       1 UNK         0.0000 
     80 H80       -12.3928   -0.5378    3.0788 H         1 UNK         0.0000 
     81 H81       -12.5325   -2.0538    2.2411 H         1 UNK         0.0000 
     82 C82       -15.0785   -0.9890    2.9716 C.3       1 UNK         0.0000 
     83 O83       -14.4782   -1.4225    0.6632 O.3       1 UNK         0.0000 
     84 H84       -14.2206    0.4045    1.5379 H         1 UNK         0.0000 
     85 C85       -16.5895   -0.8254    2.6732 C.3       1 UNK         0.0000 
     86 H86       -14.8184   -0.3439    3.8117 H         1 UNK         0.0000 
     87 H87       -14.8901   -2.0077    3.3157 H         1 UNK         0.0000 
     88 C88       -17.4761   -0.9591    3.9408 C.3       1 UNK         0.0000 
     89 O89       -16.9307   -1.8380    1.7463 O.3       1 UNK         0.0000 
     90 H90       -16.7661    0.1442    2.2049 H         1 UNK         0.0000 
     91 C91       -19.0045   -0.9574    3.6862 C.3       1 UNK         0.0000 
     92 H92       -17.2335   -0.1326    4.6096 H         1 UNK         0.0000 
     93 H93       -17.2052   -1.8658    4.4849 H         1 UNK         0.0000 
     94 C94       -19.8454   -0.8546    4.9887 C.3       1 UNK         0.0000 
     95 H95       -19.2612   -0.1288    3.0243 H         1 UNK         0.0000 
     96 C96       -21.3800   -0.9604    4.7889 C.3       1 UNK         0.0000 
     97 H97       -19.6201    0.1054    5.4541 H         1 UNK         0.0000 
     98 H98       -19.5205   -1.6132    5.7031 H         1 UNK         0.0000 
     99 C99       -22.2151   -0.6267    6.0542 C.3       1 UNK         0.0000 
    100 O100      -21.6277   -2.3064    4.4390 O.3       1 UNK         0.0000 
    101 H101      -21.6827   -0.3112    3.9657 H         1 UNK         0.0000 
    102 H102      -11.1374   -0.8806   -0.7329 H         1 UNK         0.0000 
    103 H103      -13.7116   -1.3905    0.0805 H         1 UNK         0.0000 
    104 H104      -16.1944   -1.8766    1.1260 H         1 UNK         0.0000 
    105 O105      -19.3019   -2.1686    3.0189 O.3       1 UNK         0.0000 
    106 H106      -18.5914   -2.2914    2.3811 H         1 UNK         0.0000 
    107 H107      -20.9691   -2.5306    3.7798 H         1 UNK         0.0000 
    108 C108      -23.6150    0.0016    5.8102 C.3       1 UNK         0.0000 
    109 H109      -21.6550    0.0766    6.6703 H         1 UNK         0.0000 
    110 H110      -22.3140   -1.5252    6.6655 H         1 UNK         0.0000 
    111 C111      -24.4496    0.0852    7.1122 C.3       1 UNK         0.0000 
    112 O112      -24.3580   -0.7682    4.8942 O.3       1 UNK         0.0000 
    113 H113      -23.4969    0.9998    5.3873 H         1 UNK         0.0000 
    114 C114      -25.8103    0.8228    7.0069 C.3       1 UNK         0.0000 
    115 H115      -23.8486    0.5885    7.8701 H         1 UNK         0.0000 
    116 H116      -24.6147   -0.9243    7.4929 H         1 UNK         0.0000 
    117 C117      -26.5748    0.8302    8.3520 C.3       1 UNK         0.0000 
    118 O118      -26.6331    0.1621    6.0658 O.3       1 UNK         0.0000 
    119 H119      -25.6501    1.8483    6.6706 H         1 UNK         0.0000 
    120 C120      -27.8942    1.6430    8.3697 C.3       1 UNK         0.0000 
    121 H121      -25.9134    1.2400    9.1163 H         1 UNK         0.0000 
    122 H122      -26.7755   -0.1979    8.6593 H         1 UNK         0.0000 
    123 C123      -28.5835    1.6147    9.7529 C.3       1 UNK         0.0000 
    124 O124      -28.8005    1.0849    7.4386 O.3       1 UNK         0.0000 
    125 H125      -27.6932    2.6769    8.0851 H         1 UNK         0.0000 
    126 C126      -29.8354    2.5152    9.8840 C.3       1 UNK         0.0000 
    127 H127      -27.8571    1.9348   10.5011 H         1 UNK         0.0000 
    128 H128      -28.8408    0.5864   10.0147 H         1 UNK         0.0000 
    129 C129      -30.4287    2.4930   11.3088 C.3       1 UNK         0.0000 
    130 O130      -30.8403    2.0531    9.0022 O.3       1 UNK         0.0000 
    131 H131      -29.5791    3.5412    9.6155 H         1 UNK         0.0000 
    132 H132      -31.6761    2.3518    9.3702 H         1 UNK         0.0000 
    133 H133      -29.6803    1.3362    7.7379 H         1 UNK         0.0000 
    134 H134      -27.5405    0.3802    6.3031 H         1 UNK         0.0000 
    135 H135      -25.2836   -0.5859    5.0715 H         1 UNK         0.0000 
    136 C136      -31.5664    3.5101   11.5524 C.3       1 UNK         0.0000 
    137 H137      -29.6269    2.7110   12.0153 H         1 UNK         0.0000 
    138 H138      -30.7685    1.4850   11.5547 H         1 UNK         0.0000 
    139 C139      -32.0362    3.5071   13.0118 C.3       1 UNK         0.0000 
    140 O140      -32.6815    3.1845   10.7422 O.3       1 UNK         0.0000 
    141 H141      -31.2228    4.5118   11.2875 H         1 UNK         0.0000 
    142 H142      -32.8330    4.2327   13.1781 H         1 UNK         0.0000 
    143 H143      -32.4112    2.5259   13.3079 H         1 UNK         0.0000 
    144 H144      -31.2191    3.7639   13.6864 H         1 UNK         0.0000 
    145 H145      -33.3892    3.7876   10.9286 H         1 UNK         0.0000 
@<TRIPOS>BOND
     1    1    2 1    
     2    1   73 1    
     3    1   74 1    
     4    1   75 1    
     5    2    3 1    
     6    2    4 1    
     7    2    5 1    
     8    3    6 1    
     9    3    7 1    
    10    3    8 1    
    11    5   72 1    
    12    6    9 1    
    13    6   10 1    
    14    6   11 1    
    15    9   12 1    
    16    9   13 1    
    17    9   14 1    
    18   11   71 1    
    19   12   15 1    
    20   12   16 1    
    21   12   17 1    
    22   15   18 1    
    23   15   19 1    
    24   15   20 1    
    25   17   70 1    
    26   18   21 1    
    27   18   22 1    
    28   18   23 1    
    29   21   24 1    
    30   21   25 1    
    31   21   26 1    
    32   23   69 1    
    33   24   27 1    
    34   24   28 1    
    35   24   29 1    
    36   27   30 1    
    37   27   31 1    
    38   27   32 1    
    39   29   68 1    
    40   30   33 1    
    41   30   34 1    
    42   30   35 1    
    43   33   36 1    
    44   33   37 1    
    45   33   38 1    
    46   35   67 1    
    47   36   39 1    
    48   36   40 1    
    49   36   41 1    
    50   39   42 1    
    51   39   43 1    
    52   39   44 1    
    53   41   66 1    
    54   42   45 1    
    55   42   46 1    
    56   42   47 1    
    57   45   48 1    
    58   45   49 1    
    59   45   50 1    
    60   47   65 1    
    61   48   51 1    
    62   48   52 1    
    63   48   53 1    
    64   51   54 1    
    65   51   55 1    
    66   51   56 1    
    67   53   64 1    
    68   56   57 1    
    69   56   58 1    
    70   56   59 1    
    71   57   60 1    
    72   57   61 1    
    73   57   62 1    
    74   59   63 1    
    75   73   76 1    
    76   73   77 1    
    77   73   78 1    
    78   76   79 1    
    79   76   80 1    
    80   76   81 1    
    81   77  102 1    
    82   79   82 1    
    83   79   83 1    
    84   79   84 1    
    85   82   85 1    
    86   82   86 1    
    87   82   87 1    
    88   83  103 1    
    89   85   88 1    
    90   85   89 1    
    91   85   90 1    
    92   88   91 1    
    93   88   92 1    
    94   88   93 1    
    95   89  104 1    
    96   91   94 1    
    97   91   95 1    
    98   91  105 1    
    99   94   96 1    
   100   94   97 1    
   101   94   98 1    
   102   96   99 1    
   103   96  100 1    
   104   96  101 1    
   105   99  108 1    
   106   99  109 1    
   107   99  110 1    
   108  100  107 1    
   109  105  106 1    
   110  108  111 1    
   111  108  112 1    
   112  108  113 1    
   113  111  114 1    
   114  111  115 1    
   115  111  116 1    
   116  112  135 1    
   117  114  117 1    
   118  114  118 1    
   119  114  119 1    
   120  117  120 1    
   121  117  121 1    
   122  117  122 1    
   123  118  134 1    
   124  120  123 1    
   125  120  124 1    
   126  120  125 1    
   127  123  126 1    
   128  123  127 1    
   129  123  128 1    
   130  124  133 1    
   131  126  129 1    
   132  126  130 1    
   133  126  131 1    
   134  129  136 1    
   135  129  137 1    
   136  129  138 1    
   137  130  132 1    
   138  136  139 1    
   139  136  140 1    
   140  136  141 1    
   141  139  142 1    
   142  139  143 1    
   143  139  144 1    
   144  140  145 1    
@<TRIPOS>SUBSTRUCTURE
     1 UNK         1 GROUP             0       ****    0 ROOT    
