@<TRIPOS>MOLECULE
Structure1
75   74    1
SMALL
USER_CHARGES


@<TRIPOS>ATOM
      1 C1        -12.3518   -0.8997    2.8291 C.3       1 UNK         0.0000 
      2 C2        -11.2698    0.1858    2.7977 C.3       1 UNK         0.0000 
      3 H3        -13.3200   -0.4803    3.1052 H         1 UNK         0.0000 
      4 H4        -12.4647   -1.3695    1.8518 H         1 UNK         0.0000 
      5 H5        -12.1116   -1.6809    3.5512 H         1 UNK         0.0000 
      6 C6         -9.8879   -0.3837    2.4142 C.3       1 UNK         0.0000 
      7 C7         -8.7900    0.6764    2.1858 C.3       1 UNK         0.0000 
      8 H8         -9.9866   -0.9845    1.5094 H         1 UNK         0.0000 
      9 H9         -9.5691   -1.0757    3.1952 H         1 UNK         0.0000 
     10 C10        -7.3964    0.0389    1.9875 C.3       1 UNK         0.0000 
     11 C11        -6.2126    1.0299    2.0281 C.3       1 UNK         0.0000 
     12 H12        -7.3856   -0.5090    1.0440 H         1 UNK         0.0000 
     13 H13        -7.2371   -0.7100    2.7651 H         1 UNK         0.0000 
     14 C14        -4.8619    0.3322    1.7501 C.3       1 UNK         0.0000 
     15 C15        -3.6389    1.2744    1.6935 C.3       1 UNK         0.0000 
     16 H16        -4.9285   -0.2121    0.8067 H         1 UNK         0.0000 
     17 H17        -4.6962   -0.4248    2.5183 H         1 UNK         0.0000 
     18 C18        -2.3065    0.5050    1.5428 C.3       1 UNK         0.0000 
     19 C19        -1.0367    1.3453    1.8067 C.3       1 UNK         0.0000 
     20 H20        -2.2577    0.0640    0.5462 H         1 UNK         0.0000 
     21 H21        -2.3029   -0.3368    2.2371 H         1 UNK         0.0000 
     22 C22         0.2584    0.5383    1.5616 C.3       1 UNK         0.0000 
     23 C23         1.5712    1.3389    1.7211 C.3       1 UNK         0.0000 
     24 H24         0.2283    0.1127    0.5575 H         1 UNK         0.0000 
     25 H25         0.2722   -0.3134    2.2436 H         1 UNK         0.0000 
     26 C26         2.8245    0.4457    1.5834 C.3       1 UNK         0.0000 
     27 C27         4.1557    1.1179    1.9891 C.3       1 UNK         0.0000 
     28 H28         2.8941    0.0860    0.5556 H         1 UNK         0.0000 
     29 H29         2.6934   -0.4458    2.1988 H         1 UNK         0.0000 
     30 C30         5.3670    0.1884    1.7573 C.3       1 UNK         0.0000 
     31 C31         6.7468    0.8201    2.0491 C.3       1 UNK         0.0000 
     32 H32         5.3547   -0.1614    0.7239 H         1 UNK         0.0000 
     33 H33         5.2432   -0.7039    2.3731 H         1 UNK         0.0000 
     34 C34         7.8939   -0.2061    1.9209 C.3       1 UNK         0.0000 
     35 C35         9.2669    0.2755    2.4398 C.3       1 UNK         0.0000 
     36 H36         7.9833   -0.5096    0.8767 H         1 UNK         0.0000 
     37 H37         7.6226   -1.1102    2.4683 H         1 UNK         0.0000 
     38 C38        10.3705   -0.7745    2.1910 C.3       1 UNK         0.0000 
     39 C39        11.7860   -0.3714    2.6530 C.3       1 UNK         0.0000 
     40 H40        10.4022   -1.0018    1.1242 H         1 UNK         0.0000 
     41 H41        10.0889   -1.7064    2.6836 H         1 UNK         0.0000 
     42 C42        12.8193   -1.4672    2.3673 C.3       1 UNK         0.0000 
     43 H43        13.8116   -1.1837    2.7193 H         1 UNK         0.0000 
     44 H44        12.5505   -2.3968    2.8712 H         1 UNK         0.0000 
     45 H45        12.8915   -1.6807    1.2998 H         1 UNK         0.0000 
     46 O46        12.1921    0.8008    1.9766 O.3       1 UNK         0.0000 
     47 H47        11.7776   -0.1710    3.7256 H         1 UNK         0.0000 
     48 H48        13.0841    1.0072    2.2191 H         1 UNK         0.0000 
     49 O49         6.9573    1.8862    1.1403 O.3       1 UNK         0.0000 
     50 H50         6.7447    1.2176    3.0649 H         1 UNK         0.0000 
     51 H51         7.7657    2.3238    1.3680 H         1 UNK         0.0000 
     52 H52         1.5790    1.8040    2.7080 H         1 UNK         0.0000 
     53 H53        -3.6064    1.8546    2.6164 H         1 UNK         0.0000 
     54 O54        -9.1285    1.4397    1.0407 O.3       1 UNK         0.0000 
     55 H55        -8.7599    1.3363    3.0536 H         1 UNK         0.0000 
     56 H56        -8.5306    2.1706    0.9796 H         1 UNK         0.0000 
     57 O57         1.6028    2.3562    0.7360 O.3       1 UNK         0.0000 
     58 H58         2.3681    2.8943    0.8834 H         1 UNK         0.0000 
     59 O59        -3.8033    2.1627    0.6024 O.3       1 UNK         0.0000 
     60 H60        -3.1017    2.7980    0.6212 H         1 UNK         0.0000 
     61 H61         9.5385    1.2026    1.9328 H         1 UNK         0.0000 
     62 H62         4.2907    2.0304    1.4066 H         1 UNK         0.0000 
     63 H63        -1.0408    2.2187    1.1530 H         1 UNK         0.0000 
     64 H64        -6.3708    1.8090    1.2806 H         1 UNK         0.0000 
     65 H65       -11.5650    0.9564    2.0828 H         1 UNK         0.0000 
     66 O66         9.1621    0.5321    3.8285 O.3       1 UNK         0.0000 
     67 H67         9.9482    0.9830    4.1050 H         1 UNK         0.0000 
     68 O68         4.0819    1.4593    3.3620 O.3       1 UNK         0.0000 
     69 H69         4.8653    1.9381    3.5961 H         1 UNK         0.0000 
     70 O70        -1.0742    1.7818    3.1539 O.3       1 UNK         0.0000 
     71 H71        -0.3451    2.3680    3.3014 H         1 UNK         0.0000 
     72 O72        -6.1840    1.6269    3.3131 O.3       1 UNK         0.0000 
     73 H73        -5.5191    2.3013    3.3159 H         1 UNK         0.0000 
     74 O74       -11.2250    0.7550    4.0914 O.3       1 UNK         0.0000 
     75 H75       -10.7098    1.5478    4.0532 H         1 UNK         0.0000 
@<TRIPOS>BOND
     1    1    2 1    
     2    1    3 1    
     3    1    4 1    
     4    1    5 1    
     5    2    6 1    
     6    2   65 1    
     7    2   74 1    
     8    6    7 1    
     9    6    8 1    
    10    6    9 1    
    11    7   10 1    
    12    7   54 1    
    13    7   55 1    
    14   10   11 1    
    15   10   12 1    
    16   10   13 1    
    17   11   14 1    
    18   11   64 1    
    19   11   72 1    
    20   14   15 1    
    21   14   16 1    
    22   14   17 1    
    23   15   18 1    
    24   15   53 1    
    25   15   59 1    
    26   18   19 1    
    27   18   20 1    
    28   18   21 1    
    29   19   22 1    
    30   19   63 1    
    31   19   70 1    
    32   22   23 1    
    33   22   24 1    
    34   22   25 1    
    35   23   26 1    
    36   23   52 1    
    37   23   57 1    
    38   26   27 1    
    39   26   28 1    
    40   26   29 1    
    41   27   30 1    
    42   27   62 1    
    43   27   68 1    
    44   30   31 1    
    45   30   32 1    
    46   30   33 1    
    47   31   34 1    
    48   31   49 1    
    49   31   50 1    
    50   34   35 1    
    51   34   36 1    
    52   34   37 1    
    53   35   38 1    
    54   35   61 1    
    55   35   66 1    
    56   38   39 1    
    57   38   40 1    
    58   38   41 1    
    59   39   42 1    
    60   39   46 1    
    61   39   47 1    
    62   42   43 1    
    63   42   44 1    
    64   42   45 1    
    65   46   48 1    
    66   49   51 1    
    67   54   56 1    
    68   57   58 1    
    69   59   60 1    
    70   66   67 1    
    71   68   69 1    
    72   70   71 1    
    73   72   73 1    
    74   74   75 1    
@<TRIPOS>SUBSTRUCTURE
     1 UNK         1 GROUP             0       ****    0 ROOT    
