@<TRIPOS>MOLECULE
Structure2
55   54    1
SMALL
USER_CHARGES


@<TRIPOS>ATOM
      1 C1         -0.4823    2.5616    1.3112 C.3       1 UNK         0.0000 
      2 C2          0.9700    2.3161    0.8223 C.3       1 UNK         0.0000 
      3 H3          0.9976    2.3392   -0.2680 H         1 UNK         0.0000 
      4 H4          1.2530    1.2997    1.0952 H         1 UNK         0.0000 
      5 C5          2.0618    3.2527    1.4039 C.3       1 UNK         0.0000 
      6 C6          3.4729    2.9079    0.8668 C.3       1 UNK         0.0000 
      7 C7          4.6501    3.6923    1.5026 C.3       1 UNK         0.0000 
      8 H8          3.4874    3.0398   -0.2165 H         1 UNK         0.0000 
      9 H9          3.6487    1.8451    1.0342 H         1 UNK         0.0000 
     10 C10         6.0207    3.2741    0.9184 C.3       1 UNK         0.0000 
     11 C11         7.2584    3.9268    1.5854 C.3       1 UNK         0.0000 
     12 H12         6.0342    3.4736   -0.1547 H         1 UNK         0.0000 
     13 H13         6.1157    2.1922    1.0159 H         1 UNK         0.0000 
     14 C14         8.5882    3.4492    0.9580 C.3       1 UNK         0.0000 
     15 C15         9.8701    3.9571    1.6631 C.3       1 UNK         0.0000 
     16 H16         8.6147    3.7238   -0.0981 H         1 UNK         0.0000 
     17 H17         8.6012    2.3591    0.9777 H         1 UNK         0.0000 
     18 C18        11.1595    3.4128    1.0098 C.3       1 UNK         0.0000 
     19 C19        12.4664    3.7538    1.7655 C.3       1 UNK         0.0000 
     20 H20        11.2260    3.7593   -0.0232 H         1 UNK         0.0000 
     21 H21        11.0777    2.3271    0.9501 H         1 UNK         0.0000 
     22 C22        13.7116    3.1232    1.1057 C.3       1 UNK         0.0000 
     23 C23        15.0186    3.2704    1.9175 C.3       1 UNK         0.0000 
     24 H24        13.8472    3.5292    0.1012 H         1 UNK         0.0000 
     25 H25        13.5210    2.0581    0.9679 H         1 UNK         0.0000 
     26 C26        16.1905    2.5325    1.2601 C.3       1 UNK         0.0000 
     27 H27        17.1066    2.6345    1.8429 H         1 UNK         0.0000 
     28 H28        15.9812    1.4663    1.1705 H         1 UNK         0.0000 
     29 H29        16.3897    2.9137    0.2573 H         1 UNK         0.0000 
     30 O30        -1.1101    3.4969    0.4602 O.3       1 UNK         0.0000 
     31 O31         1.7976    4.5904    1.0516 O.3       1 UNK         0.0000 
     32 O32         4.4871    5.0719    1.2387 O.3       1 UNK         0.0000 
     33 O33         7.1934    5.3290    1.4129 O.3       1 UNK         0.0000 
     34 O34         9.9193    5.3682    1.5805 O.3       1 UNK         0.0000 
     35 O35        12.6519    5.1563    1.7675 O.3       1 UNK         0.0000 
     36 O36        15.3698    4.6388    2.0132 O.3       1 UNK         0.0000 
     37 C37        -1.3669    1.2927    1.2633 C.3       1 UNK         0.0000 
     38 C38        -2.7538    1.4297    1.9427 C.3       1 UNK         0.0000 
     39 H39        -0.8337    0.4835    1.7624 H         1 UNK         0.0000 
     40 H40        -1.4883    0.9709    0.2275 H         1 UNK         0.0000 
     41 C41        -3.5804    0.1276    1.8640 C.3       1 UNK         0.0000 
     42 C42        -4.8817    0.1291    2.7016 C.3       1 UNK         0.0000 
     43 H43        -2.9549   -0.6936    2.2147 H         1 UNK         0.0000 
     44 H44        -3.8079   -0.1016    0.8213 H         1 UNK         0.0000 
     45 C45        -5.6306   -1.2182    2.6246 C.3       1 UNK         0.0000 
     46 C46        -6.8184   -1.3542    3.6033 C.3       1 UNK         0.0000 
     47 H47        -4.9208   -2.0158    2.8471 H         1 UNK         0.0000 
     48 H48        -5.9652   -1.4006    1.6013 H         1 UNK         0.0000 
     49 C49        -7.4493   -2.7505    3.5496 C.3       1 UNK         0.0000 
     50 H50        -8.2794   -2.8435    4.2508 H         1 UNK         0.0000 
     51 H51        -7.8289   -2.9775    2.5521 H         1 UNK         0.0000 
     52 H52        -6.7206   -3.5198    3.8064 H         1 UNK         0.0000 
     53 O53        -3.5098    2.4381    1.3009 O.3       1 UNK         0.0000 
     54 O54        -5.7578    1.1269    2.2134 O.3       1 UNK         0.0000 
     55 O55        -7.8246   -0.4147    3.2710 O.3       1 UNK         0.0000 
@<TRIPOS>BOND
     1    1    2 1    
     2    1   30 1    
     3    1   37 1    
     4    2    3 1    
     5    2    4 1    
     6    2    5 1    
     7    5    6 1    
     8    5   31 1    
     9    6    7 1    
    10    6    8 1    
    11    6    9 1    
    12    7   10 1    
    13    7   32 1    
    14   10   11 1    
    15   10   12 1    
    16   10   13 1    
    17   11   14 1    
    18   11   33 1    
    19   14   15 1    
    20   14   16 1    
    21   14   17 1    
    22   15   18 1    
    23   15   34 1    
    24   18   19 1    
    25   18   20 1    
    26   18   21 1    
    27   19   22 1    
    28   19   35 1    
    29   22   23 1    
    30   22   24 1    
    31   22   25 1    
    32   23   26 1    
    33   23   36 1    
    34   26   27 1    
    35   26   28 1    
    36   26   29 1    
    37   37   38 1    
    38   37   39 1    
    39   37   40 1    
    40   38   41 1    
    41   38   53 1    
    42   41   42 1    
    43   41   43 1    
    44   41   44 1    
    45   42   45 1    
    46   42   54 1    
    47   45   46 1    
    48   45   47 1    
    49   45   48 1    
    50   46   49 1    
    51   46   55 1    
    52   49   50 1    
    53   49   51 1    
    54   49   52 1    
@<TRIPOS>SUBSTRUCTURE
     1 UNK         1 GROUP             0       ****    0 ROOT    
