@<TRIPOS>MOLECULE
Structure1
75   74    1
SMALL
USER_CHARGES


@<TRIPOS>ATOM
      1 C1        -12.3700   -0.6119    3.2038 C.3       1 UNK         0.0000 
      2 C2        -11.3419    0.4249    2.7368 C.3       1 UNK         0.0000 
      3 H3        -13.3364   -0.1436    3.3943 H         1 UNK         0.0000 
      4 H4        -12.5218   -1.3854    2.4501 H         1 UNK         0.0000 
      5 H5        -12.0518   -1.0990    4.1255 H         1 UNK         0.0000 
      6 C6         -9.9620   -0.1925    2.4297 C.3       1 UNK         0.0000 
      7 C7         -8.8430    0.8423    2.1735 C.3       1 UNK         0.0000 
      8 H8        -10.0415   -0.8760    1.5829 H         1 UNK         0.0000 
      9 H9         -9.6676   -0.8069    3.2814 H         1 UNK         0.0000 
     10 C10        -7.4606    0.1866    1.9562 C.3       1 UNK         0.0000 
     11 C11        -6.2753    1.1799    1.9048 C.3       1 UNK         0.0000 
     12 H12        -7.4790   -0.4206    1.0493 H         1 UNK         0.0000 
     13 H13        -7.2794   -0.5107    2.7749 H         1 UNK         0.0000 
     14 C14        -4.9099    0.4752    1.7214 C.3       1 UNK         0.0000 
     15 C15        -3.6737    1.4025    1.8292 C.3       1 UNK         0.0000 
     16 H16        -4.8966   -0.0473    0.7630 H         1 UNK         0.0000 
     17 H17        -4.8195   -0.3009    2.4822 H         1 UNK         0.0000 
     18 C18        -2.3354    0.6486    1.6307 C.3       1 UNK         0.0000 
     19 C19        -1.0554    1.4961    1.8516 C.3       1 UNK         0.0000 
     20 H20        -2.3136    0.2123    0.6309 H         1 UNK         0.0000 
     21 H21        -2.3082   -0.1951    2.3217 H         1 UNK         0.0000 
     22 C22         0.2467    0.6916    1.6128 C.3       1 UNK         0.0000 
     23 C23         1.5647    1.4520    1.9126 C.3       1 UNK         0.0000 
     24 H24         0.2628    0.3257    0.5842 H         1 UNK         0.0000 
     25 H25         0.2199   -0.2003    2.2402 H         1 UNK         0.0000 
     26 C26         2.8240    0.5941    1.6396 C.3       1 UNK         0.0000 
     27 C27         4.1760    1.2662    1.9936 C.3       1 UNK         0.0000 
     28 H28         2.8342    0.2862    0.5922 H         1 UNK         0.0000 
     29 H29         2.7406   -0.3280    2.2165 H         1 UNK         0.0000 
     30 C30         5.3909    0.3522    1.7100 C.3       1 UNK         0.0000 
     31 C31         6.7672    0.9335    2.1240 C.3       1 UNK         0.0000 
     32 H32         5.4095    0.0900    0.6506 H         1 UNK         0.0000 
     33 H33         5.2435   -0.5881    2.2437 H         1 UNK         0.0000 
     34 C34         7.9332   -0.0457    1.8578 C.3       1 UNK         0.0000 
     35 C35         9.3154    0.4349    2.3629 C.3       1 UNK         0.0000 
     36 H36         7.9889   -0.2735    0.7913 H         1 UNK         0.0000 
     37 H37         7.7017   -0.9915    2.3496 H         1 UNK         0.0000 
     38 C38        10.4253   -0.6154    2.1448 C.3       1 UNK         0.0000 
     39 C39        11.7871   -0.2602    2.7853 C.3       1 UNK         0.0000 
     40 H40        10.5535   -0.8025    1.0768 H         1 UNK         0.0000 
     41 H41        10.0884   -1.5613    2.5722 H         1 UNK         0.0000 
     42 C42        12.8125   -1.3889    2.6217 C.3       1 UNK         0.0000 
     43 H43        13.7671   -1.1331    3.0832 H         1 UNK         0.0000 
     44 H44        12.4612   -2.3089    3.0913 H         1 UNK         0.0000 
     45 H45        12.9997   -1.6074    1.5690 H         1 UNK         0.0000 
     46 O46        12.3195    0.8980    2.1679 O.3       1 UNK         0.0000 
     47 H47        11.6481   -0.0557    3.8486 H         1 UNK         0.0000 
     48 H48        13.1785    1.0761    2.5282 H         1 UNK         0.0000 
     49 O49         9.6908    1.6008    1.6552 O.3       1 UNK         0.0000 
     50 H50         9.2524    0.6775    3.4246 H         1 UNK         0.0000 
     51 H51        10.6510    1.6378    1.6931 H         1 UNK         0.0000 
     52 O52         7.0205    2.1036    1.3711 O.3       1 UNK         0.0000 
     53 H53         6.7531    1.1975    3.1827 H         1 UNK         0.0000 
     54 H54         7.9784    2.2064    1.3522 H         1 UNK         0.0000 
     55 O55         4.3303    2.4284    1.2038 O.3       1 UNK         0.0000 
     56 H56         4.1791    1.5583    3.0445 H         1 UNK         0.0000 
     57 H57         5.2804    2.5835    1.1437 H         1 UNK         0.0000 
     58 O58         1.6343    2.5877    1.0726 O.3       1 UNK         0.0000 
     59 H59         1.5719    1.7850    2.9516 H         1 UNK         0.0000 
     60 H60         2.5725    2.7961    0.9866 H         1 UNK         0.0000 
     61 O61        -1.0660    2.5742    0.9367 O.3       1 UNK         0.0000 
     62 H62        -1.0471    1.9006    2.8650 H         1 UNK         0.0000 
     63 H63        -0.1447    2.8404    0.8342 H         1 UNK         0.0000 
     64 O64        -3.7640    2.3912    0.8225 O.3       1 UNK         0.0000 
     65 H65        -3.6687    1.8990    2.8009 H         1 UNK         0.0000 
     66 H66        -2.8634    2.7082    0.6891 H         1 UNK         0.0000 
     67 O67        -6.4638    2.0530    0.8082 O.3       1 UNK         0.0000 
     68 H68        -6.2538    1.7724    2.8211 H         1 UNK         0.0000 
     69 H69        -5.5906    2.4074    0.6064 H         1 UNK         0.0000 
     70 O70        -9.1634    1.5838    1.0122 O.3       1 UNK         0.0000 
     71 H71        -8.7815    1.5301    3.0181 H         1 UNK         0.0000 
     72 H72        -8.3328    1.9620    0.7080 H         1 UNK         0.0000 
     73 O73       -11.8448    1.0153    1.5614 O.3       1 UNK         0.0000 
     74 H74       -11.2367    1.2005    3.4970 H         1 UNK         0.0000 
     75 H75       -11.0909    1.4176    1.1261 H         1 UNK         0.0000 
@<TRIPOS>BOND
     1    1    2 1    
     2    1    3 1    
     3    1    4 1    
     4    1    5 1    
     5    2    6 1    
     6    2   73 1    
     7    2   74 1    
     8    6    7 1    
     9    6    8 1    
    10    6    9 1    
    11    7   10 1    
    12    7   70 1    
    13    7   71 1    
    14   10   11 1    
    15   10   12 1    
    16   10   13 1    
    17   11   14 1    
    18   11   67 1    
    19   11   68 1    
    20   14   15 1    
    21   14   16 1    
    22   14   17 1    
    23   15   18 1    
    24   15   64 1    
    25   15   65 1    
    26   18   19 1    
    27   18   20 1    
    28   18   21 1    
    29   19   22 1    
    30   19   61 1    
    31   19   62 1    
    32   22   23 1    
    33   22   24 1    
    34   22   25 1    
    35   23   26 1    
    36   23   58 1    
    37   23   59 1    
    38   26   27 1    
    39   26   28 1    
    40   26   29 1    
    41   27   30 1    
    42   27   55 1    
    43   27   56 1    
    44   30   31 1    
    45   30   32 1    
    46   30   33 1    
    47   31   34 1    
    48   31   52 1    
    49   31   53 1    
    50   34   35 1    
    51   34   36 1    
    52   34   37 1    
    53   35   38 1    
    54   35   49 1    
    55   35   50 1    
    56   38   39 1    
    57   38   40 1    
    58   38   41 1    
    59   39   42 1    
    60   39   46 1    
    61   39   47 1    
    62   42   43 1    
    63   42   44 1    
    64   42   45 1    
    65   46   48 1    
    66   49   51 1    
    67   52   54 1    
    68   55   57 1    
    69   58   60 1    
    70   61   63 1    
    71   64   66 1    
    72   67   69 1    
    73   70   72 1    
    74   73   75 1    
@<TRIPOS>SUBSTRUCTURE
     1 UNK         1 GROUP             0       ****    0 ROOT    
