@<TRIPOS>MOLECULE
Structure2
55   54    1
SMALL
USER_CHARGES


@<TRIPOS>ATOM
      1 C1          0.0113    2.1393    0.9730 C.2       1 UNK         0.0000 
      2 C2          1.1754    1.6764    0.0962 C.3       1 UNK         0.0000 
      3 H3          1.1288    2.1919   -0.8629 H         1 UNK         0.0000 
      4 H4          1.0810    0.6088   -0.0991 H         1 UNK         0.0000 
      5 C5          2.5173    1.9550    0.7747 C.2       1 UNK         0.0000 
      6 C6          3.4904    2.8737    0.0207 C.3       1 UNK         0.0000 
      7 C7          4.6358    3.3989    0.8953 C.2       1 UNK         0.0000 
      8 H8          2.9372    3.7247   -0.3770 H         1 UNK         0.0000 
      9 H9          3.9092    2.3344   -0.8279 H         1 UNK         0.0000 
     10 C10         5.6750    2.3868    1.4047 C.3       1 UNK         0.0000 
     11 C11         7.0640    3.0028    1.6129 C.2       1 UNK         0.0000 
     12 H12         5.7518    1.5520    0.7098 H         1 UNK         0.0000 
     13 H13         5.3281    1.9847    2.3569 H         1 UNK         0.0000 
     14 C14         7.7620    3.6144    0.3857 C.3       1 UNK         0.0000 
     15 C15         9.2430    3.9366    0.6236 C.2       1 UNK         0.0000 
     16 H16         7.2485    4.5369    0.1133 H         1 UNK         0.0000 
     17 H17         7.6779    2.9320   -0.4586 H         1 UNK         0.0000 
     18 C18        10.2082    2.7560    0.8195 C.3       1 UNK         0.0000 
     19 C19        11.4840    3.1507    1.5722 C.2       1 UNK         0.0000 
     20 H20        10.4783    2.3506   -0.1545 H         1 UNK         0.0000 
     21 H21         9.7119    1.9627    1.3774 H         1 UNK         0.0000 
     22 C22        12.5617    3.9138    0.7806 C.3       1 UNK         0.0000 
     23 C23        13.8180    4.2147    1.6032 C.2       1 UNK         0.0000 
     24 H24        12.1503    4.8583    0.4260 H         1 UNK         0.0000 
     25 H25        12.8431    3.3336   -0.0966 H         1 UNK         0.0000 
     26 C26        14.7483    3.0582    1.9538 C.3       1 UNK         0.0000 
     27 H27        15.4875    3.3847    2.6853 H         1 UNK         0.0000 
     28 H28        14.1896    2.2268    2.3823 H         1 UNK         0.0000 
     29 H29        15.2726    2.7109    1.0645 H         1 UNK         0.0000 
     30 O30        -0.6364    3.1349    0.6530 O.2       1 UNK         0.0000 
     31 O31         2.8188    1.3765    1.8192 O.2       1 UNK         0.0000 
     32 O32         4.7285    4.6055    1.1152 O.2       1 UNK         0.0000 
     33 O33         7.6129    2.9137    2.7109 O.2       1 UNK         0.0000 
     34 O34         9.6416    5.0954    0.5086 O.2       1 UNK         0.0000 
     35 O35        11.6492    2.7688    2.7315 O.2       1 UNK         0.0000 
     36 O36        14.1198    5.3690    1.8993 O.2       1 UNK         0.0000 
     37 C37        -0.3278    1.2982    2.2118 C.3       1 UNK         0.0000 
     38 C38        -1.8370    1.2024    2.4624 C.2       1 UNK         0.0000 
     39 H39         0.1478    1.7504    3.0824 H         1 UNK         0.0000 
     40 H40         0.0839    0.2954    2.1052 H         1 UNK         0.0000 
     41 C41        -2.7111    0.6306    1.3327 C.3       1 UNK         0.0000 
     42 C42        -4.1289    0.2647    1.7885 C.2       1 UNK         0.0000 
     43 H43        -2.2344   -0.2536    0.9125 H         1 UNK         0.0000 
     44 H44        -2.7867    1.3725    0.5375 H         1 UNK         0.0000 
     45 C45        -4.2812   -0.9340    2.7378 C.3       1 UNK         0.0000 
     46 C46        -5.5337   -0.8319    3.6113 C.2       1 UNK         0.0000 
     47 H47        -3.4105   -1.0050    3.3892 H         1 UNK         0.0000 
     48 H48        -4.3287   -1.8505    2.1518 H         1 UNK         0.0000 
     49 C49        -6.8814   -1.1861    2.9911 C.3       1 UNK         0.0000 
     50 H50        -7.6876   -0.7501    3.5809 H         1 UNK         0.0000 
     51 H51        -6.9563   -0.8033    1.9741 H         1 UNK         0.0000 
     52 H52        -7.0146   -2.2670    2.9700 H         1 UNK         0.0000 
     53 O53        -2.2931    1.5067    3.5637 O.2       1 UNK         0.0000 
     54 O54        -5.0994    0.8306    1.2838 O.2       1 UNK         0.0000 
     55 O55        -5.4505   -0.5577    4.8061 O.2       1 UNK         0.0000 
@<TRIPOS>BOND
     1    1    2 1    
     2    1   30 2    
     3    1   37 1    
     4    2    3 1    
     5    2    4 1    
     6    2    5 1    
     7    5    6 1    
     8    5   31 2    
     9    6    7 1    
    10    6    8 1    
    11    6    9 1    
    12    7   10 1    
    13    7   32 2    
    14   10   11 1    
    15   10   12 1    
    16   10   13 1    
    17   11   14 1    
    18   11   33 2    
    19   14   15 1    
    20   14   16 1    
    21   14   17 1    
    22   15   18 1    
    23   15   34 2    
    24   18   19 1    
    25   18   20 1    
    26   18   21 1    
    27   19   22 1    
    28   19   35 2    
    29   22   23 1    
    30   22   24 1    
    31   22   25 1    
    32   23   26 1    
    33   23   36 2    
    34   26   27 1    
    35   26   28 1    
    36   26   29 1    
    37   37   38 1    
    38   37   39 1    
    39   37   40 1    
    40   38   41 1    
    41   38   53 2    
    42   41   42 1    
    43   41   43 1    
    44   41   44 1    
    45   42   45 1    
    46   42   54 2    
    47   45   46 1    
    48   45   47 1    
    49   45   48 1    
    50   46   49 1    
    51   46   55 2    
    52   49   50 1    
    53   49   51 1    
    54   49   52 1    
@<TRIPOS>SUBSTRUCTURE
     1 UNK         1 GROUP             0       ****    0 ROOT    
