@<TRIPOS>MOLECULE
Structure1
105   104    1
SMALL
USER_CHARGES


@<TRIPOS>ATOM
      1 C1        -10.0654   -0.9290    2.0715 C.3       1 UNK         0.0000 
      2 C2         -9.1028   -0.0904    1.2255 C.2       1 UNK         0.0000 
      3 C3         -7.7275    0.2550    1.8172 C.3       1 UNK         0.0000 
      4 C4         -6.6773   -0.8484    1.5792 C.2       1 UNK         0.0000 
      5 H5         -7.8317    0.4340    2.8865 H         1 UNK         0.0000 
      6 H6         -7.3898    1.1865    1.3650 H         1 UNK         0.0000 
      7 C7         -5.3037   -0.7134    2.2570 C.3       1 UNK         0.0000 
      8 C8         -4.4425    0.4412    1.7179 C.2       1 UNK         0.0000 
      9 H9         -4.7586   -1.6475    2.1225 H         1 UNK         0.0000 
     10 H10        -5.4473   -0.5734    3.3276 H         1 UNK         0.0000 
     11 C11        -2.9334    0.3708    1.9951 C.3       1 UNK         0.0000 
     12 C12        -2.1735   -0.4668    0.9515 C.2       1 UNK         0.0000 
     13 H13        -2.7694   -0.0340    2.9926 H         1 UNK         0.0000 
     14 H14        -2.5320    1.3837    1.9860 H         1 UNK         0.0000 
     15 C15        -0.9683   -1.3046    1.4111 C.3       1 UNK         0.0000 
     16 C16         0.1394   -0.4983    2.1095 C.2       1 UNK         0.0000 
     17 H17        -0.5383   -1.8020    0.5405 H         1 UNK         0.0000 
     18 H18        -1.3130   -2.0869    2.0851 H         1 UNK         0.0000 
     19 C19         1.2642   -1.3108    2.7549 C.3       1 UNK         0.0000 
     20 C20         2.6016   -1.0600    2.0551 C.2       1 UNK         0.0000 
     21 H21         1.0314   -2.3752    2.7078 H         1 UNK         0.0000 
     22 H22         1.3410   -1.0335    3.8051 H         1 UNK         0.0000 
     23 C23         3.4871    0.0664    2.6149 C.3       1 UNK         0.0000 
     24 C24         4.8266    0.2120    1.8739 C.2       1 UNK         0.0000 
     25 H25         3.6601   -0.0956    3.6798 H         1 UNK         0.0000 
     26 H26         2.9435    1.0049    2.5208 H         1 UNK         0.0000 
     27 C27         5.8909   -0.8883    2.0209 C.3       1 UNK         0.0000 
     28 C28         6.5270   -0.9342    3.4224 C.2       1 UNK         0.0000 
     29 H29         6.6641   -0.7127    1.2740 H         1 UNK         0.0000 
     30 H30         5.4535   -1.8612    1.8011 H         1 UNK         0.0000 
     31 C31         7.6289   -1.9725    3.6695 C.3       1 UNK         0.0000 
     32 C32         8.9541   -1.6483    2.9607 C.2       1 UNK         0.0000 
     33 H33         7.2659   -2.9448    3.3421 H         1 UNK         0.0000 
     34 H34         7.8051   -2.0364    4.7427 H         1 UNK         0.0000 
     35 C35        10.1664   -2.5042    3.3285 C.3       1 UNK         0.0000 
     36 H36        10.8357   -2.5698    2.4727 H         1 UNK         0.0000 
     37 H37         9.8500   -3.5154    3.5795 H         1 UNK         0.0000 
     38 C38        10.8938   -1.9080    4.5296 C.2       1 UNK         0.0000 
     39 C39        12.3693   -1.5701    4.3705 C.3       1 UNK         0.0000 
     40 H40        12.5441   -0.5071    4.5362 H         1 UNK         0.0000 
     41 H41        12.9444   -2.1324    5.1045 H         1 UNK         0.0000 
     42 H42        12.7308   -1.8294    3.3762 H         1 UNK         0.0000 
     43 C43       -11.3011   -0.1005    2.4378 C.2       1 UNK         0.0000 
     44 H44        -9.5740   -1.2634    2.9839 H         1 UNK         0.0000 
     45 H45       -10.3566   -1.8146    1.5080 H         1 UNK         0.0000 
     46 C46       -12.6470   -0.4912    1.8106 C.3       1 UNK         0.0000 
     47 C47       -13.5510   -1.2562    2.7942 C.2       1 UNK         0.0000 
     48 H48       -12.4757   -1.1048    0.9259 H         1 UNK         0.0000 
     49 H49       -13.1549    0.4146    1.4797 H         1 UNK         0.0000 
     50 C50       -15.0121   -1.4630    2.3943 C.3       1 UNK         0.0000 
     51 C51       -15.8405   -0.2113    2.7073 C.2       1 UNK         0.0000 
     52 H52       -15.4159   -2.3221    2.9288 H         1 UNK         0.0000 
     53 H53       -15.0762   -1.6808    1.3292 H         1 UNK         0.0000 
     54 C54       -16.7323   -0.2048    3.9600 C.3       1 UNK         0.0000 
     55 C55       -17.9743   -1.1044    3.8260 C.2       1 UNK         0.0000 
     56 H56       -17.0497    0.8217    4.1470 H         1 UNK         0.0000 
     57 H57       -16.1405   -0.5264    4.8163 H         1 UNK         0.0000 
     58 C58       -19.0539   -0.9975    4.9126 C.3       1 UNK         0.0000 
     59 C59       -19.8107    0.3395    4.8750 C.2       1 UNK         0.0000 
     60 H60       -18.5939   -1.1297    5.8911 H         1 UNK         0.0000 
     61 H61       -19.7702   -1.8089    4.7827 H         1 UNK         0.0000 
     62 C62       -20.4038    0.8532    6.1884 C.3       1 UNK         0.0000 
     63 C63       -21.7429    0.1781    6.4813 C.2       1 UNK         0.0000 
     64 H64       -20.5410    1.9321    6.1262 H         1 UNK         0.0000 
     65 H65       -19.7123    0.6534    7.0067 H         1 UNK         0.0000 
     66 C66       -23.0124    1.0110    6.2340 C.3       1 UNK         0.0000 
     67 C67       -24.2946    0.2171    6.5025 C.2       1 UNK         0.0000 
     68 H68       -23.0157    1.3486    5.1985 H         1 UNK         0.0000 
     69 H69       -23.0008    1.8995    6.8656 H         1 UNK         0.0000 
     70 C70       -24.7349    0.0109    7.9533 C.3       1 UNK         0.0000 
     71 C71       -25.8375    1.0083    8.3218 C.2       1 UNK         0.0000 
     72 H72       -23.8897    0.1527    8.6251 H         1 UNK         0.0000 
     73 H73       -25.0842   -1.0137    8.0764 H         1 UNK         0.0000 
     74 C74       -27.1783    0.4279    8.7939 C.3       1 UNK         0.0000 
     75 C75       -27.7032    1.1100   10.0648 C.2       1 UNK         0.0000 
     76 H76       -27.0613   -0.6324    9.0107 H         1 UNK         0.0000 
     77 H77       -27.9097    0.5217    7.9913 H         1 UNK         0.0000 
     78 C78       -29.2118    1.3389   10.1553 C.3       1 UNK         0.0000 
     79 C79       -29.5280    2.8261   10.0560 C.2       1 UNK         0.0000 
     80 H80       -29.5842    0.9450   11.0987 H         1 UNK         0.0000 
     81 H81       -29.7244    0.8094    9.3516 H         1 UNK         0.0000 
     82 C82       -29.5187    3.6502   11.3384 C.3       1 UNK         0.0000 
     83 H83       -30.1968    4.5017   11.2477 H         1 UNK         0.0000 
     84 H84       -29.8355    3.0450   12.1873 H         1 UNK         0.0000 
     85 H85       -28.5132    4.0241   11.5329 H         1 UNK         0.0000 
     86 O86        10.3319   -1.7717    5.6137 O.2       1 UNK         0.0000 
     87 O87         9.0479   -0.7947    2.0786 O.2       1 UNK         0.0000 
     88 O88         6.1014   -0.2657    4.3665 O.2       1 UNK         0.0000 
     89 O89         5.0410    1.2003    1.1704 O.2       1 UNK         0.0000 
     90 O90         2.9480   -1.7928    1.1269 O.2       1 UNK         0.0000 
     91 O91         0.1005    0.7250    2.2403 O.2       1 UNK         0.0000 
     92 O92        -2.5354   -0.5298   -0.2221 O.2       1 UNK         0.0000 
     93 O93        -4.9345    1.4519    1.2166 O.2       1 UNK         0.0000 
     94 O94        -6.9370   -1.8870    0.9699 O.2       1 UNK         0.0000 
     95 O95        -9.4329    0.3062    0.1077 O.2       1 UNK         0.0000 
     96 O96       -11.2146    0.8515    3.2166 O.2       1 UNK         0.0000 
     97 O97       -13.1278   -1.7679    3.8301 O.2       1 UNK         0.0000 
     98 O98       -15.7646    0.7839    1.9882 O.2       1 UNK         0.0000 
     99 O99       -18.0699   -1.9694    2.9515 O.2       1 UNK         0.0000 
    100 O100      -19.9222    1.0101    3.8501 O.2       1 UNK         0.0000 
    101 O101      -21.7645   -0.9616    6.9509 O.2       1 UNK         0.0000 
    102 O102      -24.9615   -0.2339    5.5722 O.2       1 UNK         0.0000 
    103 O103      -25.6500    2.2216    8.2211 O.2       1 UNK         0.0000 
    104 O104      -26.9762    1.3397   11.0314 O.2       1 UNK         0.0000 
    105 O105      -29.8290    3.3370    8.9799 O.2       1 UNK         0.0000 
@<TRIPOS>BOND
     1    1    2 1    
     2    1   43 1    
     3    1   44 1    
     4    1   45 1    
     5    2    3 1    
     6    2   95 2    
     7    3    4 1    
     8    3    5 1    
     9    3    6 1    
    10    4    7 1    
    11    4   94 2    
    12    7    8 1    
    13    7    9 1    
    14    7   10 1    
    15    8   11 1    
    16    8   93 2    
    17   11   12 1    
    18   11   13 1    
    19   11   14 1    
    20   12   15 1    
    21   12   92 2    
    22   15   16 1    
    23   15   17 1    
    24   15   18 1    
    25   16   19 1    
    26   16   91 2    
    27   19   20 1    
    28   19   21 1    
    29   19   22 1    
    30   20   23 1    
    31   20   90 2    
    32   23   24 1    
    33   23   25 1    
    34   23   26 1    
    35   24   27 1    
    36   24   89 2    
    37   27   28 1    
    38   27   29 1    
    39   27   30 1    
    40   28   31 1    
    41   28   88 2    
    42   31   32 1    
    43   31   33 1    
    44   31   34 1    
    45   32   35 1    
    46   32   87 2    
    47   35   36 1    
    48   35   37 1    
    49   35   38 1    
    50   38   39 1    
    51   38   86 2    
    52   39   40 1    
    53   39   41 1    
    54   39   42 1    
    55   43   46 1    
    56   43   96 2    
    57   46   47 1    
    58   46   48 1    
    59   46   49 1    
    60   47   50 1    
    61   47   97 2    
    62   50   51 1    
    63   50   52 1    
    64   50   53 1    
    65   51   54 1    
    66   51   98 2    
    67   54   55 1    
    68   54   56 1    
    69   54   57 1    
    70   55   58 1    
    71   55   99 2    
    72   58   59 1    
    73   58   60 1    
    74   58   61 1    
    75   59   62 1    
    76   59  100 2    
    77   62   63 1    
    78   62   64 1    
    79   62   65 1    
    80   63   66 1    
    81   63  101 2    
    82   66   67 1    
    83   66   68 1    
    84   66   69 1    
    85   67   70 1    
    86   67  102 2    
    87   70   71 1    
    88   70   72 1    
    89   70   73 1    
    90   71   74 1    
    91   71  103 2    
    92   74   75 1    
    93   74   76 1    
    94   74   77 1    
    95   75   78 1    
    96   75  104 2    
    97   78   79 1    
    98   78   80 1    
    99   78   81 1    
   100   79   82 1    
   101   79  105 2    
   102   82   83 1    
   103   82   84 1    
   104   82   85 1    
@<TRIPOS>SUBSTRUCTURE
     1 UNK         1 GROUP             0       ****    0 ROOT    
