@<TRIPOS>MOLECULE
Structure1
215   214    1
SMALL
USER_CHARGES


@<TRIPOS>ATOM
      1 C1        -10.1930   -1.6337    2.6415 C.3       1 UNK         0.0000 
      2 C2        -11.4352   -1.3951    1.7510 C.3       1 UNK         0.0000 
      3 C3         -8.8775   -1.1018    2.0266 C.3       1 UNK         0.0000 
      4 C4         -7.6234   -1.3858    2.8886 C.3       1 UNK         0.0000 
      5 H5         -8.9589   -0.0328    1.8221 H         1 UNK         0.0000 
      6 H6         -8.7429   -1.5795    1.0554 H         1 UNK         0.0000 
      7 C7         -6.2827   -1.1138    2.1654 C.3       1 UNK         0.0000 
      8 C8         -5.0352   -1.5003    2.9989 C.3       1 UNK         0.0000 
      9 H9         -6.2232   -0.0683    1.8579 H         1 UNK         0.0000 
     10 H10        -6.2710   -1.6965    1.2434 H         1 UNK         0.0000 
     11 C11        -3.7099   -1.4801    2.1959 C.3       1 UNK         0.0000 
     12 C12        -2.4381   -1.6969    3.0521 C.3       1 UNK         0.0000 
     13 H13        -3.6197   -0.5304    1.6671 H         1 UNK         0.0000 
     14 H14        -3.7585   -2.2507    1.4254 H         1 UNK         0.0000 
     15 C15        -1.1310   -1.8929    2.2456 C.3       1 UNK         0.0000 
     16 C16         0.1529   -1.7497    3.1029 C.3       1 UNK         0.0000 
     17 H17        -1.0926   -1.1451    1.4526 H         1 UNK         0.0000 
     18 H18        -1.1433   -2.8614    1.7428 H         1 UNK         0.0000 
     19 C19         1.4746   -2.0108    2.3372 C.3       1 UNK         0.0000 
     20 C20         2.7445   -1.5369    3.0920 C.3       1 UNK         0.0000 
     21 H21         1.4368   -1.4920    1.3785 H         1 UNK         0.0000 
     22 H22         1.5552   -3.0722    2.0958 H         1 UNK         0.0000 
     23 C23         4.0805   -1.9333    2.4133 C.3       1 UNK         0.0000 
     24 C24         5.3277   -1.1937    2.9681 C.3       1 UNK         0.0000 
     25 H25         4.0128   -1.7239    1.3451 H         1 UNK         0.0000 
     26 H26         4.2207   -3.0127    2.4933 H         1 UNK         0.0000 
     27 C27         6.6795   -1.7483    2.4483 C.3       1 UNK         0.0000 
     28 C28         7.9111   -0.8474    2.7399 C.3       1 UNK         0.0000 
     29 H29         6.6134   -1.8886    1.3687 H         1 UNK         0.0000 
     30 H30         6.8429   -2.7444    2.8638 H         1 UNK         0.0000 
     31 C31         9.2728   -1.5253    2.4345 C.3       1 UNK         0.0000 
     32 C32        10.5034   -0.5767    2.4543 C.3       1 UNK         0.0000 
     33 H33         9.2218   -1.9916    1.4498 H         1 UNK         0.0000 
     34 H34         9.4289   -2.3449    3.1384 H         1 UNK         0.0000 
     35 C35        11.8647   -1.3187    2.3828 C.3       1 UNK         0.0000 
     36 C36        13.1101   -0.4119    2.1722 C.3       1 UNK         0.0000 
     37 H37        11.8304   -2.0401    1.5656 H         1 UNK         0.0000 
     38 H38        11.9947   -1.9110    3.2903 H         1 UNK         0.0000 
     39 C39        14.4599   -1.1646    2.3259 C.3       1 UNK         0.0000 
     40 C40        15.7324   -0.3504    1.9552 C.3       1 UNK         0.0000 
     41 H41        14.4357   -2.0585    1.7013 H         1 UNK         0.0000 
     42 H42        14.5483   -1.5274    3.3517 H         1 UNK         0.0000 
     43 C43        17.0567   -1.0843    2.3009 C.3       1 UNK         0.0000 
     44 C44        18.3632   -0.3723    1.8480 C.3       1 UNK         0.0000 
     45 H45        17.0343   -2.0754    1.8465 H         1 UNK         0.0000 
     46 H46        17.0958   -1.2573    3.3779 H         1 UNK         0.0000 
     47 C47        19.6536   -1.0898    2.3299 C.3       1 UNK         0.0000 
     48 C48        20.9945   -0.4590    1.8565 C.3       1 UNK         0.0000 
     49 H49        19.6227   -2.1246    1.9866 H         1 UNK         0.0000 
     50 H50        19.6475   -1.1427    3.4202 H         1 UNK         0.0000 
     51 C51        22.2493   -1.1879    2.4090 C.3       1 UNK         0.0000 
     52 C52        23.6161   -0.6129    1.9423 C.3       1 UNK         0.0000 
     53 H53        22.1971   -2.2356    2.1108 H         1 UNK         0.0000 
     54 H54        22.2136   -1.1910    3.5001 H         1 UNK         0.0000 
     55 C55        24.8389   -1.3829    2.5057 C.3       1 UNK         0.0000 
     56 C56        26.2228   -0.8572    2.0346 C.3       1 UNK         0.0000 
     57 H57        24.7506   -2.4295    2.2118 H         1 UNK         0.0000 
     58 H58        24.8021   -1.3793    3.5965 H         1 UNK         0.0000 
     59 C59       -12.6861   -2.1872    2.1925 C.3       1 UNK         0.0000 
     60 H60       -11.1903   -1.6984    0.7322 H         1 UNK         0.0000 
     61 H61       -11.6616   -0.3287    1.6946 H         1 UNK         0.0000 
     62 C62       -13.8855   -2.0228    1.2330 C.3       1 UNK         0.0000 
     63 C63       -15.0020   -3.0654    1.4540 C.3       1 UNK         0.0000 
     64 H64       -13.5310   -2.1285    0.2071 H         1 UNK         0.0000 
     65 H65       -14.2859   -1.0103    1.3018 H         1 UNK         0.0000 
     66 C66       -16.0601   -3.1528    0.3255 C.3       1 UNK         0.0000 
     67 C67       -16.9570   -1.9280    0.0170 C.3       1 UNK         0.0000 
     68 H68       -16.7127   -3.9968    0.5499 H         1 UNK         0.0000 
     69 H69       -15.5480   -3.4309   -0.5959 H         1 UNK         0.0000 
     70 C70       -17.8520   -1.4570    1.1817 C.3       1 UNK         0.0000 
     71 C71       -19.0150   -0.5431    0.7425 C.3       1 UNK         0.0000 
     72 H72       -17.2556   -0.9665    1.9524 H         1 UNK         0.0000 
     73 H73       -18.2709   -2.3445    1.6565 H         1 UNK         0.0000 
     74 C74       -20.0754   -0.3432    1.8455 C.3       1 UNK         0.0000 
     75 C75       -21.3480    0.3863    1.3605 C.3       1 UNK         0.0000 
     76 H76       -19.6407    0.1705    2.7052 H         1 UNK         0.0000 
     77 H77       -20.3668   -1.3293    2.2090 H         1 UNK         0.0000 
     78 C78       -22.5148    0.3132    2.3690 C.3       1 UNK         0.0000 
     79 C79       -23.8439    0.8921    1.8320 C.3       1 UNK         0.0000 
     80 H80       -22.2390    0.8023    3.3050 H         1 UNK         0.0000 
     81 H81       -22.6767   -0.7357    2.6199 H         1 UNK         0.0000 
     82 C82       -25.0591    0.5741    2.7311 C.3       1 UNK         0.0000 
     83 C83       -26.4125    1.0247    2.1341 C.3       1 UNK         0.0000 
     84 H84       -24.9215    1.0078    3.7234 H         1 UNK         0.0000 
     85 H85       -25.0950   -0.5054    2.8821 H         1 UNK         0.0000 
     86 C86       -27.6355    0.4984    2.9163 C.3       1 UNK         0.0000 
     87 C87        27.4195   -1.6848    2.5688 C.3       1 UNK         0.0000 
     88 C88        28.8112   -1.2223    2.0584 C.3       1 UNK         0.0000 
     89 H89        27.2748   -2.7253    2.2754 H         1 UNK         0.0000 
     90 H90        27.4106   -1.6819    3.6604 H         1 UNK         0.0000 
     91 C91        29.9798   -2.1107    2.5496 C.3       1 UNK         0.0000 
     92 C92        31.3672   -1.7325    1.9688 C.3       1 UNK         0.0000 
     93 H93        29.7636   -3.1437    2.2749 H         1 UNK         0.0000 
     94 H94        30.0204   -2.0974    3.6404 H         1 UNK         0.0000 
     95 C95        32.5015   -2.6823    2.4179 C.3       1 UNK         0.0000 
     96 C96        33.8702   -2.4160    1.7411 C.3       1 UNK         0.0000 
     97 H97        32.2022   -3.7058    2.1888 H         1 UNK         0.0000 
     98 H98        32.6111   -2.6427    3.5031 H         1 UNK         0.0000 
     99 C99       -28.9914    0.8058    2.2391 C.3       1 UNK         0.0000 
    100 H100      -27.6275    0.8849    3.9371 H         1 UNK         0.0000 
    101 H101      -27.5387   -0.5840    3.0085 H         1 UNK         0.0000 
    102 C102      -30.1860    0.1100    2.9254 C.3       1 UNK         0.0000 
    103 C103      -31.5245    0.2547    2.1635 C.3       1 UNK         0.0000 
    104 H104      -30.2945    0.4720    3.9495 H         1 UNK         0.0000 
    105 H105      -29.9571   -0.9530    3.0104 H         1 UNK         0.0000 
    106 C106      -32.6653   -0.5779    2.7845 C.3       1 UNK         0.0000 
    107 C107      -33.9583   -0.6242    1.9387 C.3       1 UNK         0.0000 
    108 H108      -32.8845   -0.2196    3.7921 H         1 UNK         0.0000 
    109 H109      -32.3107   -1.6021    2.9073 H         1 UNK         0.0000 
    110 C110      -35.0061   -1.5691    2.5364 C.3       1 UNK         0.0000 
    111 H111      -35.9095   -1.6027    1.9269 H         1 UNK         0.0000 
    112 H112      -34.6220   -2.5874    2.6004 H         1 UNK         0.0000 
    113 H113      -35.2940   -1.2620    3.5428 H         1 UNK         0.0000 
    114 C114       34.9597   -3.4304    2.1540 C.3       1 UNK         0.0000 
    115 C115       36.2868   -3.3036    1.3671 C.3       1 UNK         0.0000 
    116 H116       34.5669   -4.4357    1.9974 H         1 UNK         0.0000 
    117 H117       35.1526   -3.3532    3.2259 H         1 UNK         0.0000 
    118 C118       37.3159   -4.3875    1.7504 C.3       1 UNK         0.0000 
    119 C119       38.5699   -4.4314    0.8484 C.3       1 UNK         0.0000 
    120 H120       36.8265   -5.3598    1.6903 H         1 UNK         0.0000 
    121 H121       37.6078   -4.2723    2.7957 H         1 UNK         0.0000 
    122 C122       39.5054   -5.5879    1.2180 C.3       1 UNK         0.0000 
    123 H123       40.3805   -5.6194    0.5679 H         1 UNK         0.0000 
    124 H124       39.8575   -5.5056    2.2474 H         1 UNK         0.0000 
    125 H125       38.9985   -6.5482    1.1198 H         1 UNK         0.0000 
    126 O126        0.1065   -2.6804    4.1677 O.3       1 UNK         0.0000 
    127 H127        0.9939   -2.6722    4.5430 H         1 UNK         0.0000 
    128 O128        2.7611   -2.1138    4.3842 O.3       1 UNK         0.0000 
    129 H129        3.6415   -1.9291    4.7274 H         1 UNK         0.0000 
    130 O130        5.3591   -1.3169    4.3772 O.3       1 UNK         0.0000 
    131 H131        6.2344   -1.0052    4.6333 H         1 UNK         0.0000 
    132 O132        7.9301   -0.5073    4.1131 O.3       1 UNK         0.0000 
    133 H133        8.8063   -0.1351    4.2640 H         1 UNK         0.0000 
    134 O134       10.5065    0.1590    3.6625 O.3       1 UNK         0.0000 
    135 H135       11.3922    0.5371    3.7224 H         1 UNK         0.0000 
    136 O136       -2.6171   -2.8419    3.8578 O.3       1 UNK         0.0000 
    137 H137       -1.7444   -3.0468    4.2054 H         1 UNK         0.0000 
    138 O138       -4.9307   -0.6151    4.1010 O.3       1 UNK         0.0000 
    139 H139       -4.2716   -0.9833    4.6806 H         1 UNK         0.0000 
    140 O140       -7.6821   -0.5567    4.0330 O.3       1 UNK         0.0000 
    141 H141       -6.7713   -0.4153    4.3065 H         1 UNK         0.0000 
    142 O142      -10.4113   -0.9856    3.8792 O.3       1 UNK         0.0000 
    143 H143       -9.5429   -0.7337    4.2083 H         1 UNK         0.0000 
    144 O144      -13.0822   -1.7486    3.4782 O.3       1 UNK         0.0000 
    145 H145      -12.2869   -1.4199    3.9055 H         1 UNK         0.0000 
    146 O146      -15.6000   -2.8763    2.7202 O.3       1 UNK         0.0000 
    147 H147      -14.9259   -2.4735    3.2697 H         1 UNK         0.0000 
    148 O148       13.1030    0.6160    3.1439 O.3       1 UNK         0.0000 
    149 H149       14.0029    0.9659    3.1480 H         1 UNK         0.0000 
    150 O150       15.7286    0.8611    2.6845 O.3       1 UNK         0.0000 
    151 H151       16.6455    1.1652    2.6807 H         1 UNK         0.0000 
    152 O152       18.3816    0.9316    2.3947 O.3       1 UNK         0.0000 
    153 H153       19.3123    1.1897    2.4225 H         1 UNK         0.0000 
    154 O154       21.0475    0.8773    2.3156 O.3       1 UNK         0.0000 
    155 H155       21.9867    1.0959    2.3836 H         1 UNK         0.0000 
    156 O156       23.7149    0.7235    2.3937 O.3       1 UNK         0.0000 
    157 H157       24.6596    0.9070    2.4765 H         1 UNK         0.0000 
    158 O158       26.3830    0.4662    2.5065 O.3       1 UNK         0.0000 
    159 H159       27.3355    0.6144    2.5654 H         1 UNK         0.0000 
    160 O160       29.0532    0.0884    2.5305 O.3       1 UNK         0.0000 
    161 H161       30.0125    0.1938    2.5413 H         1 UNK         0.0000 
    162 O162       31.7098   -0.4332    2.4095 O.3       1 UNK         0.0000 
    163 H163       32.6710   -0.3792    2.3554 H         1 UNK         0.0000 
    164 O164       34.3285   -1.1309    2.1136 O.3       1 UNK         0.0000 
    165 H165       35.2836   -1.1432    1.9877 H         1 UNK         0.0000 
    166 O166       36.8736   -2.0467    1.6436 O.3       1 UNK         0.0000 
    167 H167       37.8118   -2.1443    1.4595 H         1 UNK         0.0000 
    168 O168       39.3017   -3.2276    0.9876 O.3       1 UNK         0.0000 
    169 H169       40.0947   -3.2820    0.4698 H         1 UNK         0.0000 
    170 O170      -16.2086   -0.8408   -0.4861 O.3       1 UNK         0.0000 
    171 H171      -16.7537   -0.0646   -0.3545 H         1 UNK         0.0000 
    172 O172      -18.4940    0.7196    0.3753 O.3       1 UNK         0.0000 
    173 H173      -19.2057    1.3507    0.5050 H         1 UNK         0.0000 
    174 O174      -21.0340    1.7455    1.1325 O.3       1 UNK         0.0000 
    175 H175      -21.8557    2.2327    1.2402 H         1 UNK         0.0000 
    176 O176      -23.7182    2.2968    1.7346 O.3       1 UNK         0.0000 
    177 H177      -24.6092    2.6528    1.8085 H         1 UNK         0.0000 
    178 O178      -26.4590    2.4377    2.1414 O.3       1 UNK         0.0000 
    179 H179      -27.3918    2.6748    2.1461 H         1 UNK         0.0000 
    180 O180      -29.2157    2.2011    2.2835 O.3       1 UNK         0.0000 
    181 H181      -30.1683    2.3211    2.2154 H         1 UNK         0.0000 
    182 O182      -31.9215    1.6118    2.1850 O.3       1 UNK         0.0000 
    183 H183      -32.8741    1.6142    2.0600 H         1 UNK         0.0000 
    184 O184      -34.5313    0.6684    1.8661 O.3       1 UNK         0.0000 
    185 H185      -35.3551    0.6181    1.3980 H         1 UNK         0.0000 
    186 H186      -33.7190   -0.9544    0.9263 H         1 UNK         0.0000 
    187 H187      -31.3866   -0.0525    1.1255 H         1 UNK         0.0000 
    188 H188      -28.9541    0.4933    1.1942 H         1 UNK         0.0000 
    189 H189      -26.4850    0.6812    1.1009 H         1 UNK         0.0000 
    190 H190      -24.0367    0.4938    0.8345 H         1 UNK         0.0000 
    191 H191      -21.6775   -0.0534    0.4179 H         1 UNK         0.0000 
    192 H192      -19.5056   -0.9792   -0.1291 H         1 UNK         0.0000 
    193 H193      -17.6191   -2.2327   -0.7945 H         1 UNK         0.0000 
    194 H194      -14.5207   -4.0433    1.4972 H         1 UNK         0.0000 
    195 H195      -12.4164   -3.2424    2.2579 H         1 UNK         0.0000 
    196 H196      -10.0787   -2.7027    2.8282 H         1 UNK         0.0000 
    197 H197       -7.6364   -2.4276    3.2140 H         1 UNK         0.0000 
    198 H198       -5.1810   -2.5076    3.3944 H         1 UNK         0.0000 
    199 H199       -2.3076   -0.8365    3.7104 H         1 UNK         0.0000 
    200 H200        0.1831   -0.7451    3.5286 H         1 UNK         0.0000 
    201 H201        2.7075   -0.4517    3.2022 H         1 UNK         0.0000 
    202 H202        5.2546   -0.1334    2.7201 H         1 UNK         0.0000 
    203 H203        7.8274    0.0743    2.1617 H         1 UNK         0.0000 
    204 H204       10.4303    0.1288    1.6252 H         1 UNK         0.0000 
    205 H205       13.0628    0.0502    1.1848 H         1 UNK         0.0000 
    206 H206       15.7176   -0.1103    0.8910 H         1 UNK         0.0000 
    207 H207       18.3805   -0.2890    0.7603 H         1 UNK         0.0000 
    208 H208       21.0340   -0.4503    0.7660 H         1 UNK         0.0000 
    209 H209       23.6635   -0.6135    0.8524 H         1 UNK         0.0000 
    210 H210       26.2587   -0.8424    0.9440 H         1 UNK         0.0000 
    211 H211       28.8123   -1.2032    0.9674 H         1 UNK         0.0000 
    212 H212       31.3175   -1.7270    0.8789 H         1 UNK         0.0000 
    213 H213       33.7515   -2.4413    0.6563 H         1 UNK         0.0000 
    214 H214       36.0825   -3.3663    0.2973 H         1 UNK         0.0000 
    215 H215       38.2660   -4.5355   -0.1953 H         1 UNK         0.0000 
@<TRIPOS>BOND
     1    1    2 1    
     2    1    3 1    
     3    1  142 1    
     4    1  196 1    
     5    2   59 1    
     6    2   60 1    
     7    2   61 1    
     8    3    4 1    
     9    3    5 1    
    10    3    6 1    
    11    4    7 1    
    12    4  140 1    
    13    4  197 1    
    14    7    8 1    
    15    7    9 1    
    16    7   10 1    
    17    8   11 1    
    18    8  138 1    
    19    8  198 1    
    20   11   12 1    
    21   11   13 1    
    22   11   14 1    
    23   12   15 1    
    24   12  136 1    
    25   12  199 1    
    26   15   16 1    
    27   15   17 1    
    28   15   18 1    
    29   16   19 1    
    30   16  126 1    
    31   16  200 1    
    32   19   20 1    
    33   19   21 1    
    34   19   22 1    
    35   20   23 1    
    36   20  128 1    
    37   20  201 1    
    38   23   24 1    
    39   23   25 1    
    40   23   26 1    
    41   24   27 1    
    42   24  130 1    
    43   24  202 1    
    44   27   28 1    
    45   27   29 1    
    46   27   30 1    
    47   28   31 1    
    48   28  132 1    
    49   28  203 1    
    50   31   32 1    
    51   31   33 1    
    52   31   34 1    
    53   32   35 1    
    54   32  134 1    
    55   32  204 1    
    56   35   36 1    
    57   35   37 1    
    58   35   38 1    
    59   36   39 1    
    60   36  148 1    
    61   36  205 1    
    62   39   40 1    
    63   39   41 1    
    64   39   42 1    
    65   40   43 1    
    66   40  150 1    
    67   40  206 1    
    68   43   44 1    
    69   43   45 1    
    70   43   46 1    
    71   44   47 1    
    72   44  152 1    
    73   44  207 1    
    74   47   48 1    
    75   47   49 1    
    76   47   50 1    
    77   48   51 1    
    78   48  154 1    
    79   48  208 1    
    80   51   52 1    
    81   51   53 1    
    82   51   54 1    
    83   52   55 1    
    84   52  156 1    
    85   52  209 1    
    86   55   56 1    
    87   55   57 1    
    88   55   58 1    
    89   56   87 1    
    90   56  158 1    
    91   56  210 1    
    92   59   62 1    
    93   59  144 1    
    94   59  195 1    
    95   62   63 1    
    96   62   64 1    
    97   62   65 1    
    98   63   66 1    
    99   63  146 1    
   100   63  194 1    
   101   66   67 1    
   102   66   68 1    
   103   66   69 1    
   104   67   70 1    
   105   67  170 1    
   106   67  193 1    
   107   70   71 1    
   108   70   72 1    
   109   70   73 1    
   110   71   74 1    
   111   71  172 1    
   112   71  192 1    
   113   74   75 1    
   114   74   76 1    
   115   74   77 1    
   116   75   78 1    
   117   75  174 1    
   118   75  191 1    
   119   78   79 1    
   120   78   80 1    
   121   78   81 1    
   122   79   82 1    
   123   79  176 1    
   124   79  190 1    
   125   82   83 1    
   126   82   84 1    
   127   82   85 1    
   128   83   86 1    
   129   83  178 1    
   130   83  189 1    
   131   86   99 1    
   132   86  100 1    
   133   86  101 1    
   134   87   88 1    
   135   87   89 1    
   136   87   90 1    
   137   88   91 1    
   138   88  160 1    
   139   88  211 1    
   140   91   92 1    
   141   91   93 1    
   142   91   94 1    
   143   92   95 1    
   144   92  162 1    
   145   92  212 1    
   146   95   96 1    
   147   95   97 1    
   148   95   98 1    
   149   96  114 1    
   150   96  164 1    
   151   96  213 1    
   152   99  102 1    
   153   99  180 1    
   154   99  188 1    
   155  102  103 1    
   156  102  104 1    
   157  102  105 1    
   158  103  106 1    
   159  103  182 1    
   160  103  187 1    
   161  106  107 1    
   162  106  108 1    
   163  106  109 1    
   164  107  110 1    
   165  107  184 1    
   166  107  186 1    
   167  110  111 1    
   168  110  112 1    
   169  110  113 1    
   170  114  115 1    
   171  114  116 1    
   172  114  117 1    
   173  115  118 1    
   174  115  166 1    
   175  115  214 1    
   176  118  119 1    
   177  118  120 1    
   178  118  121 1    
   179  119  122 1    
   180  119  168 1    
   181  119  215 1    
   182  122  123 1    
   183  122  124 1    
   184  122  125 1    
   185  126  127 1    
   186  128  129 1    
   187  130  131 1    
   188  132  133 1    
   189  134  135 1    
   190  136  137 1    
   191  138  139 1    
   192  140  141 1    
   193  142  143 1    
   194  144  145 1    
   195  146  147 1    
   196  148  149 1    
   197  150  151 1    
   198  152  153 1    
   199  154  155 1    
   200  156  157 1    
   201  158  159 1    
   202  160  161 1    
   203  162  163 1    
   204  164  165 1    
   205  166  167 1    
   206  168  169 1    
   207  170  171 1    
   208  172  173 1    
   209  174  175 1    
   210  176  177 1    
   211  178  179 1    
   212  180  181 1    
   213  182  183 1    
   214  184  185 1    
@<TRIPOS>SUBSTRUCTURE
     1 UNK         1 GROUP             0       ****    0 ROOT    
