@<TRIPOS>MOLECULE
Structure1
145   144    1
SMALL
USER_CHARGES


@<TRIPOS>ATOM
      1 C1        -10.2967   -0.7918    1.4339 C.3       1 UNK         0.0000 
      2 C2         -9.2043   -0.0618    0.6220 C.3       1 UNK         0.0000 
      3 C3         -7.7991   -0.2817    1.2245 C.3       1 UNK         0.0000 
      4 O4         -9.4734    1.3236    0.6359 O.3       1 UNK         0.0000 
      5 C5         -6.6211    0.2956    0.4040 C.3       1 UNK         0.0000 
      6 H6         -7.6438   -1.3565    1.3280 H         1 UNK         0.0000 
      7 H7         -7.7702    0.1179    2.2398 H         1 UNK         0.0000 
      8 C8         -5.2586   -0.0403    1.0496 C.3       1 UNK         0.0000 
      9 O9         -6.7421    1.7042    0.3548 O.3       1 UNK         0.0000 
     10 C10        -4.0057    0.3816    0.2443 C.3       1 UNK         0.0000 
     11 H11        -5.2135   -1.1207    1.1942 H         1 UNK         0.0000 
     12 H12        -5.2133    0.3903    2.0516 H         1 UNK         0.0000 
     13 C13        -2.7161   -0.1189    0.9343 C.3       1 UNK         0.0000 
     14 O14        -3.9812    1.7968    0.1460 O.3       1 UNK         0.0000 
     15 C15        -1.3772    0.2716    0.2690 C.3       1 UNK         0.0000 
     16 H16        -2.7615   -1.2065    1.0077 H         1 UNK         0.0000 
     17 H17        -2.7094    0.2458    1.9627 H         1 UNK         0.0000 
     18 C18        -0.1772   -0.3123    1.0487 C.3       1 UNK         0.0000 
     19 H19        -1.2981    1.3598    0.2482 H         1 UNK         0.0000 
     20 C20         1.2050    0.2889    0.7110 C.3       1 UNK         0.0000 
     21 H21        -0.1530   -1.3934    0.9034 H         1 UNK         0.0000 
     22 H22        -0.3490   -0.1668    2.1164 H         1 UNK         0.0000 
     23 C23         2.3298   -0.4376    1.4823 C.3       1 UNK         0.0000 
     24 O24         1.1860    1.6585    1.0673 O.3       1 UNK         0.0000 
     25 C25         3.7648    0.0841    1.2500 C.3       1 UNK         0.0000 
     26 H26         2.2993   -1.4977    1.2262 H         1 UNK         0.0000 
     27 H27         2.1090   -0.3855    2.5495 H         1 UNK         0.0000 
     28 C28         4.7911   -0.7062    2.0919 C.3       1 UNK         0.0000 
     29 H29         3.8092    1.1374    1.5318 H         1 UNK         0.0000 
     30 O30         4.0840   -0.0376   -0.1243 O.3       1 UNK         0.0000 
     31 C31         6.2244   -0.1335    2.1038 C.3       1 UNK         0.0000 
     32 H32         4.8160   -1.7393    1.7413 H         1 UNK         0.0000 
     33 H33         4.4380   -0.7536    3.1234 H         1 UNK         0.0000 
     34 C34         7.1930   -1.0044    2.9313 C.3       1 UNK         0.0000 
     35 O35         6.1964    1.1533    2.6818 O.3       1 UNK         0.0000 
     36 C36         8.6803   -0.5931    2.8392 C.3       1 UNK         0.0000 
     37 H37         7.1080   -2.0318    2.5736 H         1 UNK         0.0000 
     38 H38         6.8756   -1.0291    3.9752 H         1 UNK         0.0000 
     39 C39         9.5934   -1.6129    3.5531 C.3       1 UNK         0.0000 
     40 O40         8.8467    0.6863    3.4278 O.3       1 UNK         0.0000 
     41 C41        11.1028   -1.2930    3.5205 C.3       1 UNK         0.0000 
     42 H42         9.4353   -2.5953    3.1047 H         1 UNK         0.0000 
     43 H43         9.2745   -1.7073    4.5918 H         1 UNK         0.0000 
     44 C44        11.9510   -2.3992    4.1815 C.3       1 UNK         0.0000 
     45 H45        11.8691   -3.3266    3.6109 H         1 UNK         0.0000 
     46 H46        11.5201   -2.6174    5.1594 H         1 UNK         0.0000 
     47 C47        13.4365   -2.0324    4.3917 C.3       1 UNK         0.0000 
     48 C48        14.1996   -3.1364    5.1320 C.3       1 UNK         0.0000 
     49 H49        13.5038   -1.1056    4.9645 H         1 UNK         0.0000 
     50 O50        14.0658   -1.8363    3.1382 O.3       1 UNK         0.0000 
     51 H51        15.2446   -2.8666    5.2882 H         1 UNK         0.0000 
     52 H52        13.7619   -3.3244    6.1128 H         1 UNK         0.0000 
     53 H53        14.1770   -4.0752    4.5768 H         1 UNK         0.0000 
     54 H54        14.9860   -1.6569    3.2806 H         1 UNK         0.0000 
     55 H55         4.8923    0.4309   -0.2819 H         1 UNK         0.0000 
     56 C56       -11.7461   -0.5947    0.9387 C.3       1 UNK         0.0000 
     57 H57       -10.2368   -0.4486    2.4678 H         1 UNK         0.0000 
     58 H58       -10.0740   -1.8592    1.4633 H         1 UNK         0.0000 
     59 C59       -12.7682   -1.2222    1.9123 C.3       1 UNK         0.0000 
     60 O60       -11.8971   -1.1858   -0.3386 O.3       1 UNK         0.0000 
     61 H61       -11.9478    0.4744    0.8570 H         1 UNK         0.0000 
     62 C62       -14.2546   -0.9584    1.5854 C.3       1 UNK         0.0000 
     63 H63       -12.5686   -0.8525    2.9191 H         1 UNK         0.0000 
     64 H64       -12.6005   -2.2995    1.9532 H         1 UNK         0.0000 
     65 C65       -15.1912   -1.6212    2.6159 C.3       1 UNK         0.0000 
     66 O66       -14.4986    0.4388    1.6193 O.3       1 UNK         0.0000 
     67 C67       -16.6857   -1.5583    2.2347 C.3       1 UNK         0.0000 
     68 H68       -15.0338   -1.1283    3.5760 H         1 UNK         0.0000 
     69 H69       -14.9049   -2.6624    2.7705 H         1 UNK         0.0000 
     70 C70       -17.6234   -1.6720    3.4531 C.3       1 UNK         0.0000 
     71 O71       -16.9908   -2.6209    1.3534 O.3       1 UNK         0.0000 
     72 H72       -16.8909   -0.6125    1.7310 H         1 UNK         0.0000 
     73 C73       -19.0820   -1.2623    3.1554 C.3       1 UNK         0.0000 
     74 H74       -17.2459   -0.9990    4.2240 H         1 UNK         0.0000 
     75 H75       -17.5783   -2.6730    3.8850 H         1 UNK         0.0000 
     76 C76       -19.9132   -1.1173    4.4485 C.3       1 UNK         0.0000 
     77 C77       -21.3152   -0.4990    4.2647 C.3       1 UNK         0.0000 
     78 H78       -19.3587   -0.4911    5.1491 H         1 UNK         0.0000 
     79 H79       -20.0022   -2.0925    4.9294 H         1 UNK         0.0000 
     80 C80       -22.0551   -0.3162    5.6072 C.3       1 UNK         0.0000 
     81 O81       -21.1746    0.7765    3.6770 O.3       1 UNK         0.0000 
     82 H82       -11.4759   -0.6200   -0.9703 H         1 UNK         0.0000 
     83 H83       -17.9397   -2.7273    1.3876 H         1 UNK         0.0000 
     84 C84       -23.5341    0.1208    5.4876 C.3       1 UNK         0.0000 
     85 H85       -21.5078    0.3874    6.2369 H         1 UNK         0.0000 
     86 H86       -22.0292   -1.2685    6.1390 H         1 UNK         0.0000 
     87 C87       -24.2136    0.1979    6.8722 C.3       1 UNK         0.0000 
     88 O88       -23.6001    1.3923    4.8615 O.3       1 UNK         0.0000 
     89 C89       -25.6880    0.6530    6.8631 C.3       1 UNK         0.0000 
     90 H90       -23.6409    0.8737    7.5089 H         1 UNK         0.0000 
     91 H91       -24.1525   -0.7822    7.3477 H         1 UNK         0.0000 
     92 C92       -26.3089    0.6762    8.2754 C.3       1 UNK         0.0000 
     93 O93       -26.4411   -0.2346    6.0669 O.3       1 UNK         0.0000 
     94 H94       -25.7592    1.6530    6.4333 H         1 UNK         0.0000 
     95 C95       -27.6850    1.3745    8.3569 C.3       1 UNK         0.0000 
     96 H96       -25.6235    1.2069    8.9376 H         1 UNK         0.0000 
     97 H97       -26.3761   -0.3386    8.6715 H         1 UNK         0.0000 
     98 C98       -28.2224    1.4559    9.8013 C.3       1 UNK         0.0000 
     99 C99       -29.4731    2.3478    9.9709 C.3       1 UNK         0.0000 
    100 H100      -27.4331    1.8609   10.4360 H         1 UNK         0.0000 
    101 H101      -28.4212    0.4525   10.1825 H         1 UNK         0.0000 
    102 C102      -29.9144    2.4722   11.4441 C.3       1 UNK         0.0000 
    103 O103      -30.5482    1.7845    9.2447 O.3       1 UNK         0.0000 
    104 H104      -29.2665    3.3430    9.5738 H         1 UNK         0.0000 
    105 H105      -31.3492    2.1303    9.6461 H         1 UNK         0.0000 
    106 H106      -27.3557   -0.1178    6.3337 H         1 UNK         0.0000 
    107 C107      -31.0127    3.5280   11.6996 C.3       1 UNK         0.0000 
    108 H108      -29.0425    2.7467   12.0396 H         1 UNK         0.0000 
    109 H109      -30.2327    1.4986   11.8215 H         1 UNK         0.0000 
    110 C110      -31.3321    3.6756   13.1919 C.3       1 UNK         0.0000 
    111 H111      -32.0977    4.4325   13.3654 H         1 UNK         0.0000 
    112 H112      -31.6889    2.7366   13.6179 H         1 UNK         0.0000 
    113 H113      -30.4472    3.9758   13.7543 H         1 UNK         0.0000 
    114 O114       11.5213   -1.1669    2.1787 O.3       1 UNK         0.0000 
    115 H115        6.6007   -0.0544    1.0830 H         1 UNK         0.0000 
    116 H116        7.0737    1.3047    3.0389 H         1 UNK         0.0000 
    117 H117        1.3904    0.2040   -0.3607 H         1 UNK         0.0000 
    118 H118        2.0051    2.0491    0.7945 H         1 UNK         0.0000 
    119 O119       -1.3649   -0.2174   -1.0602 O.3       1 UNK         0.0000 
    120 H120       -0.5746    0.0850   -1.4862 H         1 UNK         0.0000 
    121 H121       -4.0625   -0.0377   -0.7622 H         1 UNK         0.0000 
    122 H122       -3.2547    2.0362   -0.4157 H         1 UNK         0.0000 
    123 H123       -9.2115   -0.4120   -0.4109 H         1 UNK         0.0000 
    124 H124       -8.6305    1.7595    0.4869 H         1 UNK         0.0000 
    125 H125      -14.4858   -1.3442    0.5905 H         1 UNK         0.0000 
    126 H126      -14.1506    0.8145    0.8235 H         1 UNK         0.0000 
    127 O127      -19.6751   -2.2305    2.3039 O.3       1 UNK         0.0000 
    128 H128      -24.0681   -0.5987    4.8637 H         1 UNK         0.0000 
    129 H129      -24.5046    1.5334    4.6088 H         1 UNK         0.0000 
    130 O130      -28.6221    0.6481    7.5864 O.3       1 UNK         0.0000 
    131 O131      -32.2040    3.1465   11.0362 O.3       1 UNK         0.0000 
    132 H132       -6.6477   -0.0975   -0.6134 H         1 UNK         0.0000 
    133 H133       -5.8494    2.0417    0.2426 H         1 UNK         0.0000 
    134 H134      -19.0680   -0.3039    2.6332 H         1 UNK         0.0000 
    135 H135      -20.4717   -1.8538    1.9536 H         1 UNK         0.0000 
    136 H136      -21.9144   -1.1291    3.6060 H         1 UNK         0.0000 
    137 H137      -21.9668    1.2639    3.9109 H         1 UNK         0.0000 
    138 H138      -27.6053    2.3832    7.9482 H         1 UNK         0.0000 
    139 H139      -29.4883    0.9004    7.9198 H         1 UNK         0.0000 
    140 H140      -30.6886    4.4935   11.3067 H         1 UNK         0.0000 
    141 H141      -32.8871    3.7721   11.2401 H         1 UNK         0.0000 
    142 H142        8.9667   -0.5291    1.7877 H         1 UNK         0.0000 
    143 H143        9.7187    0.9891    3.2046 H         1 UNK         0.0000 
    144 H144       11.2867   -0.3503    4.0383 H         1 UNK         0.0000 
    145 H145       12.4667   -1.3279    2.1781 H         1 UNK         0.0000 
@<TRIPOS>BOND
     1    1    2 1    
     2    1   56 1    
     3    1   57 1    
     4    1   58 1    
     5    2    3 1    
     6    2    4 1    
     7    2  123 1    
     8    3    5 1    
     9    3    6 1    
    10    3    7 1    
    11    4  124 1    
    12    5    8 1    
    13    5    9 1    
    14    5  132 1    
    15    8   10 1    
    16    8   11 1    
    17    8   12 1    
    18    9  133 1    
    19   10   13 1    
    20   10   14 1    
    21   10  121 1    
    22   13   15 1    
    23   13   16 1    
    24   13   17 1    
    25   14  122 1    
    26   15   18 1    
    27   15   19 1    
    28   15  119 1    
    29   18   20 1    
    30   18   21 1    
    31   18   22 1    
    32   20   23 1    
    33   20   24 1    
    34   20  117 1    
    35   23   25 1    
    36   23   26 1    
    37   23   27 1    
    38   24  118 1    
    39   25   28 1    
    40   25   29 1    
    41   25   30 1    
    42   28   31 1    
    43   28   32 1    
    44   28   33 1    
    45   30   55 1    
    46   31   34 1    
    47   31   35 1    
    48   31  115 1    
    49   34   36 1    
    50   34   37 1    
    51   34   38 1    
    52   35  116 1    
    53   36   39 1    
    54   36   40 1    
    55   36  142 1    
    56   39   41 1    
    57   39   42 1    
    58   39   43 1    
    59   40  143 1    
    60   41   44 1    
    61   41  114 1    
    62   41  144 1    
    63   44   45 1    
    64   44   46 1    
    65   44   47 1    
    66   47   48 1    
    67   47   49 1    
    68   47   50 1    
    69   48   51 1    
    70   48   52 1    
    71   48   53 1    
    72   50   54 1    
    73   56   59 1    
    74   56   60 1    
    75   56   61 1    
    76   59   62 1    
    77   59   63 1    
    78   59   64 1    
    79   60   82 1    
    80   62   65 1    
    81   62   66 1    
    82   62  125 1    
    83   65   67 1    
    84   65   68 1    
    85   65   69 1    
    86   66  126 1    
    87   67   70 1    
    88   67   71 1    
    89   67   72 1    
    90   70   73 1    
    91   70   74 1    
    92   70   75 1    
    93   71   83 1    
    94   73   76 1    
    95   73  127 1    
    96   73  134 1    
    97   76   77 1    
    98   76   78 1    
    99   76   79 1    
   100   77   80 1    
   101   77   81 1    
   102   77  136 1    
   103   80   84 1    
   104   80   85 1    
   105   80   86 1    
   106   81  137 1    
   107   84   87 1    
   108   84   88 1    
   109   84  128 1    
   110   87   89 1    
   111   87   90 1    
   112   87   91 1    
   113   88  129 1    
   114   89   92 1    
   115   89   93 1    
   116   89   94 1    
   117   92   95 1    
   118   92   96 1    
   119   92   97 1    
   120   93  106 1    
   121   95   98 1    
   122   95  130 1    
   123   95  138 1    
   124   98   99 1    
   125   98  100 1    
   126   98  101 1    
   127   99  102 1    
   128   99  103 1    
   129   99  104 1    
   130  102  107 1    
   131  102  108 1    
   132  102  109 1    
   133  103  105 1    
   134  107  110 1    
   135  107  131 1    
   136  107  140 1    
   137  110  111 1    
   138  110  112 1    
   139  110  113 1    
   140  114  145 1    
   141  119  120 1    
   142  127  135 1    
   143  130  139 1    
   144  131  141 1    
@<TRIPOS>SUBSTRUCTURE
     1 UNK         1 GROUP             0       ****    0 ROOT    
