@<TRIPOS>MOLECULE
Structure1
145   144    1
SMALL
USER_CHARGES


@<TRIPOS>ATOM
      1 C1        -10.2765   -0.8181    1.3810 C.3       1 UNK         0.0000 
      2 C2         -9.1921   -0.1447    0.5114 C.3       1 UNK         0.0000 
      3 C3         -7.7722   -0.5570    0.9589 C.3       1 UNK         0.0000 
      4 O4         -9.3403    1.2589    0.6218 O.3       1 UNK         0.0000 
      5 C5         -6.6045    0.0510    0.1505 C.3       1 UNK         0.0000 
      6 H6         -7.6953   -1.6445    0.9131 H         1 UNK         0.0000 
      7 H7         -7.6463   -0.2960    2.0110 H         1 UNK         0.0000 
      8 C8         -5.2377   -0.4382    0.6809 C.3       1 UNK         0.0000 
      9 H9         -6.6503    1.1384    0.2287 H         1 UNK         0.0000 
     10 O10        -6.7521   -0.3209   -1.2084 O.3       1 UNK         0.0000 
     11 C11        -3.9975    0.3133    0.1467 C.3       1 UNK         0.0000 
     12 H12        -5.1378   -1.5039    0.4684 H         1 UNK         0.0000 
     13 H13        -5.2358   -0.3563    1.7691 H         1 UNK         0.0000 
     14 C14        -2.6901   -0.3165    0.6787 C.3       1 UNK         0.0000 
     15 O15        -4.0839    1.6636    0.5629 O.3       1 UNK         0.0000 
     16 C16        -1.3734    0.3496    0.2197 C.3       1 UNK         0.0000 
     17 H17        -2.6666   -1.3679    0.3882 H         1 UNK         0.0000 
     18 H18        -2.7212   -0.3127    1.7695 H         1 UNK         0.0000 
     19 C19        -0.1434   -0.3592    0.8311 C.3       1 UNK         0.0000 
     20 H20        -1.3778    1.3939    0.5354 H         1 UNK         0.0000 
     21 C21         1.2029    0.3878    0.6974 C.3       1 UNK         0.0000 
     22 H22        -0.0543   -1.3542    0.3919 H         1 UNK         0.0000 
     23 H23        -0.3279   -0.5256    1.8937 H         1 UNK         0.0000 
     24 C24         2.3681   -0.4497    1.2721 C.3       1 UNK         0.0000 
     25 O25         1.1023    1.6124    1.4004 O.3       1 UNK         0.0000 
     26 C26         3.7719    0.1921    1.1964 C.3       1 UNK         0.0000 
     27 H27         2.3967   -1.4094    0.7537 H         1 UNK         0.0000 
     28 H28         2.1470   -0.6842    2.3145 H         1 UNK         0.0000 
     29 C29         4.8462   -0.7262    1.8206 C.3       1 UNK         0.0000 
     30 H30         3.7568    1.1405    1.7355 H         1 UNK         0.0000 
     31 O31         4.0898    0.4394   -0.1616 O.3       1 UNK         0.0000 
     32 C32         6.2294   -0.0775    2.0494 C.3       1 UNK         0.0000 
     33 H33         4.9581   -1.6133    1.1951 H         1 UNK         0.0000 
     34 H34         4.4826   -1.0911    2.7826 H         1 UNK         0.0000 
     35 C35         7.2554   -1.1064    2.5740 C.3       1 UNK         0.0000 
     36 O36         6.0813    0.9690    2.9913 O.3       1 UNK         0.0000 
     37 C37         8.6877   -0.5742    2.8010 C.3       1 UNK         0.0000 
     38 H38         7.3031   -1.9413    1.8731 H         1 UNK         0.0000 
     39 H39         6.8823   -1.5271    3.5091 H         1 UNK         0.0000 
     40 C40         9.6199   -1.6756    3.3512 C.3       1 UNK         0.0000 
     41 H41         8.6512    0.2502    3.5147 H         1 UNK         0.0000 
     42 C42        11.0040   -1.1915    3.8345 C.3       1 UNK         0.0000 
     43 H43         9.7490   -2.4417    2.5850 H         1 UNK         0.0000 
     44 H44         9.1243   -2.1755    4.1850 H         1 UNK         0.0000 
     45 C45        11.9062   -2.3749    4.2457 C.3       1 UNK         0.0000 
     46 O46        10.8195   -0.3265    4.9401 O.3       1 UNK         0.0000 
     47 H47        11.9870   -3.0612    3.4011 H         1 UNK         0.0000 
     48 H48        11.4119   -2.9389    5.0383 H         1 UNK         0.0000 
     49 C49        13.3283   -1.9983    4.7095 C.3       1 UNK         0.0000 
     50 C50        14.1565   -3.2342    5.0803 C.3       1 UNK         0.0000 
     51 H51        13.2680   -1.3423    5.5793 H         1 UNK         0.0000 
     52 O52        14.0026   -1.3157    3.6724 O.3       1 UNK         0.0000 
     53 H53        15.1528   -2.9600    5.4284 H         1 UNK         0.0000 
     54 H54        13.6774   -3.7985    5.8813 H         1 UNK         0.0000 
     55 H55        14.2731   -3.9064    4.2290 H         1 UNK         0.0000 
     56 H56        14.8936   -1.1414    3.9422 H         1 UNK         0.0000 
     57 H57         4.9206    0.8925   -0.1996 H         1 UNK         0.0000 
     58 H58        -6.0972    0.1344   -1.7179 H         1 UNK         0.0000 
     59 C59       -11.7347   -0.5760    0.9316 C.3       1 UNK         0.0000 
     60 H60       -10.1589   -0.4588    2.4046 H         1 UNK         0.0000 
     61 H61       -10.0951   -1.8931    1.4253 H         1 UNK         0.0000 
     62 C62       -12.7477   -1.0287    2.0070 C.3       1 UNK         0.0000 
     63 O63       -11.9892   -1.2905   -0.2657 O.3       1 UNK         0.0000 
     64 H64       -11.8757    0.4896    0.7441 H         1 UNK         0.0000 
     65 C65       -14.2367   -0.8242    1.6506 C.3       1 UNK         0.0000 
     66 H66       -12.5346   -0.4981    2.9365 H         1 UNK         0.0000 
     67 H67       -12.5821   -2.0851    2.2235 H         1 UNK         0.0000 
     68 C68       -15.1713   -1.2926    2.7863 C.3       1 UNK         0.0000 
     69 O69       -14.4813    0.5503    1.4134 O.3       1 UNK         0.0000 
     70 C70       -16.6743   -1.2755    2.4320 C.3       1 UNK         0.0000 
     71 H71       -14.9999   -0.6488    3.6503 H         1 UNK         0.0000 
     72 H72       -14.8945   -2.2976    3.1079 H         1 UNK         0.0000 
     73 C73       -17.5732   -1.3871    3.6813 C.3       1 UNK         0.0000 
     74 O74       -16.9643   -2.3600    1.5649 O.3       1 UNK         0.0000 
     75 H75       -16.9050   -0.3393    1.9203 H         1 UNK         0.0000 
     76 C76       -19.0581   -1.0620    3.4176 C.3       1 UNK         0.0000 
     77 H77       -17.2063   -0.7077    4.4519 H         1 UNK         0.0000 
     78 H78       -17.4814   -2.3908    4.0987 H         1 UNK         0.0000 
     79 C79       -19.9326   -1.2865    4.6702 C.3       1 UNK         0.0000 
     80 O80       -19.1484    0.3034    3.0411 O.3       1 UNK         0.0000 
     81 C81       -21.4470   -1.0859    4.4428 C.3       1 UNK         0.0000 
     82 H82       -19.5877   -0.5999    5.4450 H         1 UNK         0.0000 
     83 H83       -19.7605   -2.2885    5.0662 H         1 UNK         0.0000 
     84 C84       -22.2229   -0.9091    5.7665 C.3       1 UNK         0.0000 
     85 O85       -21.9590   -2.2003    3.7331 O.3       1 UNK         0.0000 
     86 H86       -21.5890   -0.1931    3.8341 H         1 UNK         0.0000 
     87 H87       -11.4542   -0.9234   -0.9544 H         1 UNK         0.0000 
     88 H88       -16.6880   -2.1197    0.6935 H         1 UNK         0.0000 
     89 H89       -22.8393   -2.0003    3.4505 H         1 UNK         0.0000 
     90 C90       -23.6455   -0.3282    5.6141 C.3       1 UNK         0.0000 
     91 H91       -21.6595   -0.2378    6.4162 H         1 UNK         0.0000 
     92 H92       -22.2627   -1.8634    6.2938 H         1 UNK         0.0000 
     93 C93       -24.3577   -0.1939    6.9777 C.3       1 UNK         0.0000 
     94 O94       -23.5384    0.9501    5.0123 O.3       1 UNK         0.0000 
     95 C95       -25.7708    0.4251    6.9253 C.3       1 UNK         0.0000 
     96 H96       -23.7332    0.4144    7.6338 H         1 UNK         0.0000 
     97 H97       -24.4157   -1.1760    7.4498 H         1 UNK         0.0000 
     98 C98       -26.3621    0.6412    8.3352 C.3       1 UNK         0.0000 
     99 O99       -26.6174   -0.4271    6.1742 O.3       1 UNK         0.0000 
    100 H100      -25.7079    1.3899    6.4207 H         1 UNK         0.0000 
    101 C101      -27.5672    1.6049    8.3917 C.3       1 UNK         0.0000 
    102 H102      -25.5842    1.0394    8.9886 H         1 UNK         0.0000 
    103 H103      -26.6357   -0.3252    8.7620 H         1 UNK         0.0000 
    104 C104      -28.1593    1.6988    9.8147 C.3       1 UNK         0.0000 
    105 O105      -27.1272    2.8856    7.9782 O.3       1 UNK         0.0000 
    106 C106      -29.3793    2.6331    9.9670 C.3       1 UNK         0.0000 
    107 H107      -27.3754    2.0263   10.4995 H         1 UNK         0.0000 
    108 H108      -28.4415    0.6978   10.1447 H         1 UNK         0.0000 
    109 C109      -29.8656    2.7029   11.4308 C.3       1 UNK         0.0000 
    110 O110      -30.4249    2.1599    9.1365 O.3       1 UNK         0.0000 
    111 H111      -29.0992    3.6360    9.6414 H         1 UNK         0.0000 
    112 H112      -31.0948    2.8274    9.0930 H         1 UNK         0.0000 
    113 H113      -27.4515    0.0033    6.0541 H         1 UNK         0.0000 
    114 C114      -30.9724    3.7401   11.7124 C.3       1 UNK         0.0000 
    115 H115      -29.0128    2.9297   12.0727 H         1 UNK         0.0000 
    116 H116      -30.2115    1.7140   11.7366 H         1 UNK         0.0000 
    117 C117      -31.4207    3.7180   13.1785 C.3       1 UNK         0.0000 
    118 O118      -30.4908    5.0364   11.4229 O.3       1 UNK         0.0000 
    119 H119      -32.2081    4.4479   13.3691 H         1 UNK         0.0000 
    120 H120      -31.8128    2.7372   13.4511 H         1 UNK         0.0000 
    121 H121      -30.5916    3.9394   13.8518 H         1 UNK         0.0000 
    122 H122       11.4916   -0.6363    3.0318 H         1 UNK         0.0000 
    123 H123       11.6466    0.0966    5.1252 H         1 UNK         0.0000 
    124 O124        9.1957   -0.0947    1.5686 O.3       1 UNK         0.0000 
    125 H125       10.0443    0.2967    1.7220 H         1 UNK         0.0000 
    126 H126        6.5928    0.3418    1.1101 H         1 UNK         0.0000 
    127 H127        6.9088    1.4247    3.0626 H         1 UNK         0.0000 
    128 H128        1.3993    0.5999   -0.3547 H         1 UNK         0.0000 
    129 H129        1.8993    2.1039    1.2544 H         1 UNK         0.0000 
    130 O130       -1.3014    0.2965   -1.1941 O.3       1 UNK         0.0000 
    131 H131       -0.5283    0.7662   -1.4746 H         1 UNK         0.0000 
    132 H132       -3.9923    0.2795   -0.9439 H         1 UNK         0.0000 
    133 H133       -3.3641    2.1403    0.1723 H         1 UNK         0.0000 
    134 H134       -9.3338   -0.4327   -0.5313 H         1 UNK         0.0000 
    135 H135       -8.7394    1.6691    0.0154 H         1 UNK         0.0000 
    136 H136      -14.4665   -1.3852    0.7435 H         1 UNK         0.0000 
    137 H137      -14.0499    0.7925    0.6068 H         1 UNK         0.0000 
    138 H138      -19.4224   -1.6894    2.6018 H         1 UNK         0.0000 
    139 H139      -19.9873    0.4449    2.6287 H         1 UNK         0.0000 
    140 H140      -24.2346   -0.9758    4.9626 H         1 UNK         0.0000 
    141 H141      -24.4098    1.2561    4.8060 H         1 UNK         0.0000 
    142 H142      -28.3393    1.2571    7.7034 H         1 UNK         0.0000 
    143 H143      -27.8835    3.4473    7.8867 H         1 UNK         0.0000 
    144 H144      -31.8360    3.5379   11.0776 H         1 UNK         0.0000 
    145 H145      -31.1450    5.6758   11.6680 H         1 UNK         0.0000 
@<TRIPOS>BOND
     1    1    2 1    
     2    1   59 1    
     3    1   60 1    
     4    1   61 1    
     5    2    3 1    
     6    2    4 1    
     7    2  134 1    
     8    3    5 1    
     9    3    6 1    
    10    3    7 1    
    11    4  135 1    
    12    5    8 1    
    13    5    9 1    
    14    5   10 1    
    15    8   11 1    
    16    8   12 1    
    17    8   13 1    
    18   10   58 1    
    19   11   14 1    
    20   11   15 1    
    21   11  132 1    
    22   14   16 1    
    23   14   17 1    
    24   14   18 1    
    25   15  133 1    
    26   16   19 1    
    27   16   20 1    
    28   16  130 1    
    29   19   21 1    
    30   19   22 1    
    31   19   23 1    
    32   21   24 1    
    33   21   25 1    
    34   21  128 1    
    35   24   26 1    
    36   24   27 1    
    37   24   28 1    
    38   25  129 1    
    39   26   29 1    
    40   26   30 1    
    41   26   31 1    
    42   29   32 1    
    43   29   33 1    
    44   29   34 1    
    45   31   57 1    
    46   32   35 1    
    47   32   36 1    
    48   32  126 1    
    49   35   37 1    
    50   35   38 1    
    51   35   39 1    
    52   36  127 1    
    53   37   40 1    
    54   37   41 1    
    55   37  124 1    
    56   40   42 1    
    57   40   43 1    
    58   40   44 1    
    59   42   45 1    
    60   42   46 1    
    61   42  122 1    
    62   45   47 1    
    63   45   48 1    
    64   45   49 1    
    65   46  123 1    
    66   49   50 1    
    67   49   51 1    
    68   49   52 1    
    69   50   53 1    
    70   50   54 1    
    71   50   55 1    
    72   52   56 1    
    73   59   62 1    
    74   59   63 1    
    75   59   64 1    
    76   62   65 1    
    77   62   66 1    
    78   62   67 1    
    79   63   87 1    
    80   65   68 1    
    81   65   69 1    
    82   65  136 1    
    83   68   70 1    
    84   68   71 1    
    85   68   72 1    
    86   69  137 1    
    87   70   73 1    
    88   70   74 1    
    89   70   75 1    
    90   73   76 1    
    91   73   77 1    
    92   73   78 1    
    93   74   88 1    
    94   76   79 1    
    95   76   80 1    
    96   76  138 1    
    97   79   81 1    
    98   79   82 1    
    99   79   83 1    
   100   80  139 1    
   101   81   84 1    
   102   81   85 1    
   103   81   86 1    
   104   84   90 1    
   105   84   91 1    
   106   84   92 1    
   107   85   89 1    
   108   90   93 1    
   109   90   94 1    
   110   90  140 1    
   111   93   95 1    
   112   93   96 1    
   113   93   97 1    
   114   94  141 1    
   115   95   98 1    
   116   95   99 1    
   117   95  100 1    
   118   98  101 1    
   119   98  102 1    
   120   98  103 1    
   121   99  113 1    
   122  101  104 1    
   123  101  105 1    
   124  101  142 1    
   125  104  106 1    
   126  104  107 1    
   127  104  108 1    
   128  105  143 1    
   129  106  109 1    
   130  106  110 1    
   131  106  111 1    
   132  109  114 1    
   133  109  115 1    
   134  109  116 1    
   135  110  112 1    
   136  114  117 1    
   137  114  118 1    
   138  114  144 1    
   139  117  119 1    
   140  117  120 1    
   141  117  121 1    
   142  118  145 1    
   143  124  125 1    
   144  130  131 1    
@<TRIPOS>SUBSTRUCTURE
     1 UNK         1 GROUP             0       ****    0 ROOT    
